*SPEF "ieee 1481-1999"
*DESIGN "comp32"
*DATE "16:55:11 Thursday May 09, 2024"
*VENDOR "The OpenROAD Project"
*PROGRAM "OpenROAD"
*VERSION "d423155d69de7f683a23f6916ead418a615ad4ad"
*DESIGN_FLOW "NAME_SCOPE LOCAL" "PIN_CAP NONE"
*DIVIDER /
*DELIMITER :
*BUS_DELIMITER []
*T_UNIT 1 NS
*C_UNIT 1 PF
*R_UNIT 1 OHM
*L_UNIT 1 HENRY

*NAME_MAP
*3 a[0]
*4 a[10]
*5 a[11]
*6 a[12]
*7 a[13]
*8 a[14]
*9 a[15]
*10 a[16]
*11 a[17]
*12 a[18]
*13 a[19]
*14 a[1]
*15 a[20]
*16 a[21]
*17 a[22]
*18 a[23]
*19 a[24]
*20 a[25]
*21 a[26]
*22 a[27]
*23 a[28]
*24 a[29]
*25 a[2]
*26 a[30]
*27 a[31]
*28 a[3]
*29 a[4]
*30 a[5]
*31 a[6]
*32 a[7]
*33 a[8]
*34 a[9]
*35 b[0]
*36 b[10]
*37 b[11]
*38 b[12]
*39 b[13]
*40 b[14]
*41 b[15]
*42 b[16]
*43 b[17]
*44 b[18]
*45 b[19]
*46 b[1]
*47 b[20]
*48 b[21]
*49 b[22]
*50 b[23]
*51 b[24]
*52 b[25]
*53 b[26]
*54 b[27]
*55 b[28]
*56 b[29]
*57 b[2]
*58 b[30]
*59 b[31]
*60 b[3]
*61 b[4]
*62 b[5]
*63 b[6]
*64 b[7]
*65 b[8]
*66 b[9]
*67 clk
*68 z
*69 _000_
*70 _001_
*71 _002_
*72 _003_
*73 _004_
*74 _005_
*75 _006_
*76 _007_
*77 _008_
*78 _009_
*79 _010_
*80 _011_
*81 _012_
*82 _013_
*83 _014_
*84 _015_
*85 _016_
*86 _017_
*87 _018_
*88 _019_
*89 _020_
*90 _021_
*91 _022_
*92 _023_
*93 _024_
*94 _025_
*95 _026_
*96 _027_
*97 _028_
*98 _029_
*99 _030_
*100 _031_
*101 _032_
*102 _033_
*103 _034_
*104 _035_
*105 _036_
*106 _037_
*107 _038_
*108 _039_
*109 _040_
*110 _041_
*111 _042_
*112 _043_
*113 _044_
*114 _045_
*115 _046_
*116 _047_
*117 _048_
*118 _049_
*119 _050_
*120 _051_
*121 _052_
*122 _053_
*123 _054_
*124 _055_
*125 _056_
*126 _057_
*127 _058_
*128 _059_
*129 _060_
*130 _061_
*131 _062_
*132 _063_
*133 _064_
*134 _065_
*135 _066_
*136 _067_
*137 _068_
*138 _069_
*139 _070_
*140 _071_
*141 _072_
*142 _073_
*143 _074_
*144 _075_
*145 _076_
*146 _077_
*147 _078_
*148 _079_
*149 _080_
*150 _081_
*151 _082_
*152 _083_
*153 _084_
*154 _085_
*155 _086_
*156 _087_
*157 _088_
*158 _089_
*159 _090_
*160 _091_
*161 _092_
*162 _093_
*163 _094_
*164 _095_
*165 _096_
*166 _097_
*167 _098_
*168 _099_
*169 _100_
*170 _101_
*171 _102_
*172 _103_
*173 _104_
*174 _105_
*175 _106_
*176 _107_
*177 _108_
*178 _109_
*179 _110_
*180 _111_
*181 _112_
*182 _113_
*183 net1
*184 net10
*185 net11
*186 net12
*187 net13
*188 net14
*189 net15
*190 net16
*191 net17
*192 net18
*193 net19
*194 net2
*195 net20
*196 net21
*197 net22
*198 net23
*199 net24
*200 net25
*201 net26
*202 net27
*203 net28
*204 net29
*205 net3
*206 net30
*207 net31
*208 net32
*209 net33
*210 net34
*211 net35
*212 net36
*213 net37
*214 net38
*215 net39
*216 net4
*217 net40
*218 net41
*219 net42
*220 net43
*221 net44
*222 net45
*223 net46
*224 net47
*225 net48
*226 net49
*227 net5
*228 net50
*229 net51
*230 net52
*231 net53
*232 net54
*233 net55
*234 net56
*235 net57
*236 net58
*237 net59
*238 net6
*239 net60
*240 net61
*241 net62
*242 net63
*243 net64
*244 net65
*245 net7
*246 net8
*247 net9
*248 FILLER_0_0_20
*249 FILLER_0_0_35
*250 FILLER_0_0_57
*251 FILLER_0_0_6
*252 FILLER_0_0_90
*253 FILLER_0_10_26
*254 FILLER_0_10_29
*255 FILLER_0_10_41
*256 FILLER_0_10_53
*257 FILLER_0_10_65
*258 FILLER_0_10_83
*259 FILLER_0_11_22
*260 FILLER_0_11_34
*261 FILLER_0_11_46
*262 FILLER_0_11_54
*263 FILLER_0_11_57
*264 FILLER_0_11_6
*265 FILLER_0_11_69
*266 FILLER_0_11_77
*267 FILLER_0_12_17
*268 FILLER_0_12_25
*269 FILLER_0_12_29
*270 FILLER_0_12_3
*271 FILLER_0_12_41
*272 FILLER_0_12_53
*273 FILLER_0_12_65
*274 FILLER_0_12_71
*275 FILLER_0_12_85
*276 FILLER_0_13_20
*277 FILLER_0_13_29
*278 FILLER_0_13_3
*279 FILLER_0_13_33
*280 FILLER_0_13_52
*281 FILLER_0_13_57
*282 FILLER_0_13_63
*283 FILLER_0_13_79
*284 FILLER_0_13_88
*285 FILLER_0_14_3
*286 FILLER_0_14_36
*287 FILLER_0_14_63
*288 FILLER_0_14_76
*289 FILLER_0_14_91
*290 FILLER_0_15_16
*291 FILLER_0_15_26
*292 FILLER_0_15_29
*293 FILLER_0_15_37
*294 FILLER_0_15_41
*295 FILLER_0_15_55
*296 FILLER_0_15_57
*297 FILLER_0_15_62
*298 FILLER_0_15_9
*299 FILLER_0_15_90
*300 FILLER_0_1_47
*301 FILLER_0_1_64
*302 FILLER_0_1_7
*303 FILLER_0_1_79
*304 FILLER_0_1_91
*305 FILLER_0_2_23
*306 FILLER_0_2_27
*307 FILLER_0_2_29
*308 FILLER_0_2_3
*309 FILLER_0_2_49
*310 FILLER_0_2_61
*311 FILLER_0_2_79
*312 FILLER_0_2_85
*313 FILLER_0_3_25
*314 FILLER_0_3_3
*315 FILLER_0_3_37
*316 FILLER_0_3_49
*317 FILLER_0_3_55
*318 FILLER_0_3_57
*319 FILLER_0_3_69
*320 FILLER_0_3_88
*321 FILLER_0_4_22
*322 FILLER_0_4_29
*323 FILLER_0_4_53
*324 FILLER_0_4_65
*325 FILLER_0_4_82
*326 FILLER_0_4_88
*327 FILLER_0_5_13
*328 FILLER_0_5_17
*329 FILLER_0_5_21
*330 FILLER_0_5_3
*331 FILLER_0_5_33
*332 FILLER_0_5_49
*333 FILLER_0_5_55
*334 FILLER_0_5_57
*335 FILLER_0_5_74
*336 FILLER_0_5_78
*337 FILLER_0_5_88
*338 FILLER_0_6_14
*339 FILLER_0_6_23
*340 FILLER_0_6_27
*341 FILLER_0_6_29
*342 FILLER_0_6_41
*343 FILLER_0_6_49
*344 FILLER_0_6_55
*345 FILLER_0_6_6
*346 FILLER_0_6_72
*347 FILLER_0_7_18
*348 FILLER_0_7_30
*349 FILLER_0_7_6
*350 FILLER_0_7_69
*351 FILLER_0_7_75
*352 FILLER_0_7_88
*353 FILLER_0_8_15
*354 FILLER_0_8_21
*355 FILLER_0_8_25
*356 FILLER_0_8_3
*357 FILLER_0_8_41
*358 FILLER_0_8_53
*359 FILLER_0_8_57
*360 FILLER_0_8_63
*361 FILLER_0_8_68
*362 FILLER_0_8_80
*363 FILLER_0_8_85
*364 FILLER_0_9_12
*365 FILLER_0_9_16
*366 FILLER_0_9_24
*367 FILLER_0_9_35
*368 FILLER_0_9_47
*369 FILLER_0_9_55
*370 FILLER_0_9_57
*371 FILLER_0_9_69
*372 FILLER_0_9_77
*373 PHY_EDGE_ROW_0_Left_16
*374 PHY_EDGE_ROW_0_Right_0
*375 PHY_EDGE_ROW_10_Left_26
*376 PHY_EDGE_ROW_10_Right_10
*377 PHY_EDGE_ROW_11_Left_27
*378 PHY_EDGE_ROW_11_Right_11
*379 PHY_EDGE_ROW_12_Left_28
*380 PHY_EDGE_ROW_12_Right_12
*381 PHY_EDGE_ROW_13_Left_29
*382 PHY_EDGE_ROW_13_Right_13
*383 PHY_EDGE_ROW_14_Left_30
*384 PHY_EDGE_ROW_14_Right_14
*385 PHY_EDGE_ROW_15_Left_31
*386 PHY_EDGE_ROW_15_Right_15
*387 PHY_EDGE_ROW_1_Left_17
*388 PHY_EDGE_ROW_1_Right_1
*389 PHY_EDGE_ROW_2_Left_18
*390 PHY_EDGE_ROW_2_Right_2
*391 PHY_EDGE_ROW_3_Left_19
*392 PHY_EDGE_ROW_3_Right_3
*393 PHY_EDGE_ROW_4_Left_20
*394 PHY_EDGE_ROW_4_Right_4
*395 PHY_EDGE_ROW_5_Left_21
*396 PHY_EDGE_ROW_5_Right_5
*397 PHY_EDGE_ROW_6_Left_22
*398 PHY_EDGE_ROW_6_Right_6
*399 PHY_EDGE_ROW_7_Left_23
*400 PHY_EDGE_ROW_7_Right_7
*401 PHY_EDGE_ROW_8_Left_24
*402 PHY_EDGE_ROW_8_Right_8
*403 PHY_EDGE_ROW_9_Left_25
*404 PHY_EDGE_ROW_9_Right_9
*405 TAP_TAPCELL_ROW_0_32
*406 TAP_TAPCELL_ROW_0_33
*407 TAP_TAPCELL_ROW_0_34
*408 TAP_TAPCELL_ROW_10_48
*409 TAP_TAPCELL_ROW_10_49
*410 TAP_TAPCELL_ROW_11_50
*411 TAP_TAPCELL_ROW_12_51
*412 TAP_TAPCELL_ROW_12_52
*413 TAP_TAPCELL_ROW_13_53
*414 TAP_TAPCELL_ROW_14_54
*415 TAP_TAPCELL_ROW_14_55
*416 TAP_TAPCELL_ROW_15_56
*417 TAP_TAPCELL_ROW_15_57
*418 TAP_TAPCELL_ROW_15_58
*419 TAP_TAPCELL_ROW_1_35
*420 TAP_TAPCELL_ROW_2_36
*421 TAP_TAPCELL_ROW_2_37
*422 TAP_TAPCELL_ROW_3_38
*423 TAP_TAPCELL_ROW_4_39
*424 TAP_TAPCELL_ROW_4_40
*425 TAP_TAPCELL_ROW_5_41
*426 TAP_TAPCELL_ROW_6_42
*427 TAP_TAPCELL_ROW_6_43
*428 TAP_TAPCELL_ROW_7_44
*429 TAP_TAPCELL_ROW_8_45
*430 TAP_TAPCELL_ROW_8_46
*431 TAP_TAPCELL_ROW_9_47
*432 _114_
*433 _115_
*434 _116_
*435 _117_
*436 _118_
*437 _119_
*438 _120_
*439 _121_
*440 _122_
*441 _123_
*442 _124_
*443 _125_
*444 _126_
*445 _127_
*446 _128_
*447 _129_
*448 _130_
*449 _131_
*450 _132_
*451 _133_
*452 _134_
*453 _135_
*454 _136_
*455 _137_
*456 _138_
*457 _139_
*458 _140_
*459 _141_
*460 _142_
*461 _143_
*462 _144_
*463 _145_
*464 _146_
*465 _147_
*466 _148_
*467 _149_
*468 _150_
*469 _151_
*470 _152_
*471 _153_
*472 _154_
*473 _155_
*474 _156_
*475 _157_
*476 _158_
*477 _159_
*478 _160_
*479 _161_
*480 _162_
*481 _163_
*482 _164_
*483 _165_
*484 _166_
*485 _167_
*486 _168_
*487 _169_
*488 _170_
*489 _171_
*490 _172_
*491 _173_
*492 _174_
*493 _175_
*494 _176_
*495 _177_
*496 _178_
*497 _179_
*498 _180_
*499 _181_
*500 _182_
*501 _183_
*502 _184_
*503 _185_
*504 _186_
*505 _187_
*506 _188_
*507 _189_
*508 _190_
*509 _191_
*510 _192_
*511 _193_
*512 _194_
*513 _195_
*514 _196_
*515 _197_
*516 _198_
*517 _199_
*518 _200_
*519 _201_
*520 _202_
*521 _203_
*522 _204_
*523 _205_
*524 _206_
*525 _207_
*526 _208_
*527 _209_
*528 _210_
*529 _211_
*530 _212_
*531 _213_
*532 _214_
*533 _215_
*534 _216_
*535 _217_
*536 _218_
*537 _219_
*538 _220_
*539 _221_
*540 _222_
*541 _223_
*542 _224_
*543 _225_
*544 _226_
*545 _227_
*546 _228_
*547 input1
*548 input10
*549 input11
*550 input12
*551 input13
*552 input14
*553 input15
*554 input16
*555 input17
*556 input18
*557 input19
*558 input2
*559 input20
*560 input21
*561 input22
*562 input23
*563 input24
*564 input25
*565 input26
*566 input27
*567 input28
*568 input29
*569 input3
*570 input30
*571 input31
*572 input32
*573 input33
*574 input34
*575 input35
*576 input36
*577 input37
*578 input38
*579 input39
*580 input4
*581 input40
*582 input41
*583 input42
*584 input43
*585 input44
*586 input45
*587 input46
*588 input47
*589 input48
*590 input49
*591 input5
*592 input50
*593 input51
*594 input52
*595 input53
*596 input54
*597 input55
*598 input56
*599 input57
*600 input58
*601 input59
*602 input6
*603 input60
*604 input61
*605 input62
*606 input63
*607 input64
*608 input7
*609 input8
*610 input9
*611 output65

*PORTS
a[0] I
a[10] I
a[11] I
a[12] I
a[13] I
a[14] I
a[15] I
a[16] I
a[17] I
a[18] I
a[19] I
a[1] I
a[20] I
a[21] I
a[22] I
a[23] I
a[24] I
a[25] I
a[26] I
a[27] I
a[28] I
a[29] I
a[2] I
a[30] I
a[31] I
a[3] I
a[4] I
a[5] I
a[6] I
a[7] I
a[8] I
a[9] I
b[0] I
b[10] I
b[11] I
b[12] I
b[13] I
b[14] I
b[15] I
b[16] I
b[17] I
b[18] I
b[19] I
b[1] I
b[20] I
b[21] I
b[22] I
b[23] I
b[24] I
b[25] I
b[26] I
b[27] I
b[28] I
b[29] I
b[2] I
b[30] I
b[31] I
b[3] I
b[4] I
b[5] I
b[6] I
b[7] I
b[8] I
b[9] I
clk I
z O

*D_NET *3 0.00327068
*CONN
*P a[0] I
*I *547:A I *D sky130_fd_sc_hd__clkbuf_1
*CAP
1 a[0] 0.000866708
2 *547:A 0.000866708
3 *547:A *497:B 0
4 *547:A *528:A1 5.85019e-05
5 *547:A *528:A2 6.74911e-05
6 *547:A *565:A 0.00132952
7 *547:A *579:A 6.06115e-05
8 *547:A *597:A 0
9 *547:A *602:A 2.11419e-05
10 *547:A *238:10 0
*RES
1 a[0] *547:A 37.7823 
*END

*D_NET *4 0.00246972
*CONN
*P a[10] I
*I *558:A I *D sky130_fd_sc_hd__clkbuf_1
*CAP
1 a[10] 0.00101927
2 *558:A 0.00101927
3 *558:A *447:A 0.000271345
4 *558:A *520:B1 0
5 *558:A *587:A 0
6 *558:A *242:8 0.000125057
7 *558:A *243:8 3.47797e-05
*RES
1 a[10] *558:A 34.2107 
*END

*D_NET *5 0.00119572
*CONN
*P a[11] I
*I *569:A I *D sky130_fd_sc_hd__clkbuf_1
*CAP
1 a[11] 0.000443528
2 *569:A 0.000443528
3 *569:A *517:A_N 3.76337e-05
4 *569:A *518:D 9.22103e-06
5 *569:A *574:A 0
6 *569:A *575:A 0.000237375
7 *569:A *205:8 2.44318e-05
8 *569:A *211:12 0
*RES
1 a[11] *569:A 23.1929 
*END

*D_NET *6 0.00350691
*CONN
*P a[12] I
*I *580:A I *D sky130_fd_sc_hd__clkbuf_1
*CAP
1 a[12] 0.00097302
2 *580:A 0.00097302
3 *580:A *478:B2 0
4 *580:A *551:A 0
5 *580:A *552:A 0.000561036
6 *580:A *576:A 0.000520048
7 *580:A *584:A 0.000333436
8 *580:A *82:12 0
9 *580:A *188:12 0.00014635
*RES
1 a[12] *580:A 32.2685 
*END

*D_NET *7 0.000588773
*CONN
*P a[13] I
*I *591:A I *D sky130_fd_sc_hd__clkbuf_1
*CAP
1 a[13] 0.000193684
2 *591:A 0.000193684
3 *591:A *549:A 6.6313e-05
4 *591:A *577:A 7.3448e-05
5 *591:A *213:8 1.52978e-05
6 *591:A *213:23 4.63464e-05
*RES
1 a[13] *591:A 19.2651 
*END

*D_NET *8 0.0004372
*CONN
*P a[14] I
*I *602:A I *D sky130_fd_sc_hd__clkbuf_1
*CAP
1 a[14] 0.000139262
2 *602:A 0.000139262
3 *602:A *550:A 6.72025e-05
4 *602:A *578:A 7.03321e-05
5 *602:A *597:A 0
6 *547:A *602:A 2.11419e-05
*RES
1 a[14] *602:A 18.0508 
*END

*D_NET *9 0.000526769
*CONN
*P a[15] I
*I *608:A I *D sky130_fd_sc_hd__clkbuf_1
*CAP
1 a[15] 0.000166463
2 *608:A 0.000166463
3 *608:A *505:B 4.89311e-05
4 *608:A *548:A 7.3448e-05
5 *608:A *578:A 6.70017e-05
6 *608:A *214:8 4.46186e-06
*RES
1 a[15] *608:A 18.9615 
*END

*D_NET *10 0.000576861
*CONN
*P a[16] I
*I *609:A I *D sky130_fd_sc_hd__clkbuf_1
*CAP
1 a[16] 0.000262749
2 *609:A 0.000262749
3 *609:A *581:A 2.87684e-05
4 *609:A *599:A 2.25951e-05
*RES
1 a[16] *609:A 20.4803 
*END

*D_NET *11 0.0012139
*CONN
*P a[17] I
*I *610:A I *D sky130_fd_sc_hd__clkbuf_1
*CAP
1 a[17] 0.000426049
2 *610:A 0.000426049
3 *610:A *564:A 0.000361806
4 *610:A *570:A 0
5 *610:A *601:A 0
*RES
1 a[17] *610:A 23.2643 
*END

*D_NET *12 0.00050135
*CONN
*P a[18] I
*I *548:A I *D sky130_fd_sc_hd__clkbuf_1
*CAP
1 a[18] 0.000141235
2 *548:A 0.000141235
3 *548:A *583:A 7.3448e-05
4 *548:A *113:16 7.19848e-05
5 *608:A *548:A 7.3448e-05
*RES
1 a[18] *548:A 18.6579 
*END

*D_NET *13 0.000440108
*CONN
*P a[19] I
*I *549:A I *D sky130_fd_sc_hd__clkbuf_1
*CAP
1 a[19] 0.000136891
2 *549:A 0.000136891
3 *549:A *506:B 2.39923e-05
4 *549:A *583:A 7.60209e-05
5 *591:A *549:A 6.6313e-05
*RES
1 a[19] *549:A 18.3544 
*END

*D_NET *14 0.00261321
*CONN
*P a[1] I
*I *550:A I *D sky130_fd_sc_hd__clkbuf_1
*CAP
1 a[1] 0.00105938
2 *550:A 0.00105938
3 *550:A *573:A 0.000142315
4 *550:A *579:A 0
5 *550:A *585:A 0.000247596
6 *550:A *604:A 5.80706e-06
7 *550:A *186:16 3.15282e-05
8 *602:A *550:A 6.72025e-05
*RES
1 a[1] *550:A 21.5865 
*END

*D_NET *15 0.0012646
*CONN
*P a[20] I
*I *551:A I *D sky130_fd_sc_hd__clkbuf_1
*CAP
1 a[20] 0.00049145
2 *551:A 0.00049145
3 *551:A *438:A 2.89114e-05
4 *551:A *478:B2 1.52978e-05
5 *551:A *479:B 9.71197e-05
6 *551:A *516:B 0
7 *551:A *552:A 0
8 *551:A *586:A 0
9 *551:A *155:12 2.72967e-05
10 *551:A *187:6 9.90431e-05
11 *551:A *188:12 1.40306e-05
12 *580:A *551:A 0
*RES
1 a[20] *551:A 24.0143 
*END

*D_NET *16 0.00142819
*CONN
*P a[21] I
*I *552:A I *D sky130_fd_sc_hd__clkbuf_1
*CAP
1 a[21] 0.000249411
2 *552:A 0.000249411
3 *552:A *575:A 0
4 *552:A *576:A 0.000364645
5 *552:A *188:12 3.69047e-06
6 *551:A *552:A 0
7 *580:A *552:A 0.000561036
*RES
1 a[21] *552:A 22.2464 
*END

*D_NET *17 0.0034841
*CONN
*P a[22] I
*I *553:A I *D sky130_fd_sc_hd__clkbuf_1
*CAP
1 a[22] 0.00140921
2 *553:A 0.00140921
3 *553:A *555:A 0.000651699
4 *553:A *592:A 0
5 *553:A *193:12 1.39726e-05
*RES
1 a[22] *553:A 38.3179 
*END

*D_NET *18 0.00112675
*CONN
*P a[23] I
*I *554:A I *D sky130_fd_sc_hd__clkbuf_1
*CAP
1 a[23] 0.000480857
2 *554:A 0.000480857
3 *554:A *473:B 2.8266e-06
4 *554:A *476:A_N 0.000144773
5 *554:A *588:A 0
6 *554:A *589:A 0
7 *554:A *224:6 1.74352e-05
*RES
1 a[23] *554:A 23.4786 
*END

*D_NET *19 0.00284467
*CONN
*P a[24] I
*I *555:A I *D sky130_fd_sc_hd__clkbuf_1
*CAP
1 a[24] 0.000750656
2 *555:A 0.000750656
3 *555:A z 9.96264e-05
4 *555:A *461:A_N 0.00036192
5 *555:A *556:A 0
6 *555:A *592:A 0
7 *555:A *593:A 8.3984e-05
8 *555:A *193:12 6.82056e-05
9 *555:A *229:12 7.79267e-05
10 *553:A *555:A 0.000651699
*RES
1 a[24] *555:A 33.4786 
*END

*D_NET *20 0.000870586
*CONN
*P a[25] I
*I *556:A I *D sky130_fd_sc_hd__buf_1
*CAP
1 a[25] 0.000435293
2 *556:A 0.000435293
3 *556:A *468:A1 0
4 *556:A *590:A 0
5 *556:A *593:A 0
6 *555:A *556:A 0
*RES
1 a[25] *556:A 21.8357 
*END

*D_NET *21 0.00236616
*CONN
*P a[26] I
*I *557:A I *D sky130_fd_sc_hd__buf_1
*CAP
1 a[26] 0.000954036
2 *557:A 0.000954036
3 *557:A *468:A1 0
4 *557:A *469:B 0.000163989
5 *557:A *472:B 0
6 *557:A *473:B 0
7 *557:A *476:B 0
8 *557:A *588:A 0.000113776
9 *557:A *590:A 0
10 *557:A *593:A 7.95028e-05
11 *557:A *611:A 0
12 *557:A *189:12 0.000100823
13 *557:A *190:12 0
*RES
1 a[26] *557:A 25.5635 
*END

*D_NET *22 0.00158525
*CONN
*P a[27] I
*I *559:A I *D sky130_fd_sc_hd__clkbuf_1
*CAP
1 a[27] 0.000668224
2 *559:A 0.000668224
3 *559:A z 6.06115e-05
4 *559:A *460:A_N 0
5 *559:A *463:A_N 0
6 *559:A *463:B 1.28809e-05
7 *559:A *594:A 3.19385e-05
8 *559:A *599:A 0
9 *559:A *195:8 0.000143369
*RES
1 a[27] *559:A 27.4251 
*END

*D_NET *23 0.00230791
*CONN
*P a[28] I
*I *560:A I *D sky130_fd_sc_hd__clkbuf_1
*CAP
1 a[28] 0.000791052
2 *560:A 0.000791052
3 *560:A *432:A 4.53654e-05
4 *560:A *448:A 0
5 *560:A *561:A 8.88838e-05
6 *560:A *564:A 0.00022263
7 *560:A *567:A 0
8 *560:A *603:A 0.000368929
*RES
1 a[28] *560:A 27.9717 
*END

*D_NET *24 0.00220788
*CONN
*P a[29] I
*I *561:A I *D sky130_fd_sc_hd__buf_1
*CAP
1 a[29] 0.000877911
2 *561:A 0.000877911
3 *561:A *434:A 6.74815e-05
4 *561:A *503:B 0
5 *561:A *563:A 3.19385e-05
6 *561:A *564:A 0.000192445
7 *561:A *567:A 0
8 *561:A *596:A 0
9 *561:A *603:A 6.8646e-06
10 *561:A *196:12 6.44449e-05
11 *561:A *239:10 0
12 *560:A *561:A 8.88838e-05
*RES
1 a[29] *561:A 25.3473 
*END

*D_NET *25 0.00149649
*CONN
*P a[2] I
*I *562:A I *D sky130_fd_sc_hd__clkbuf_1
*CAP
1 a[2] 0.000602032
2 *562:A 0.000602032
3 *562:A *494:B 1.33343e-05
4 *562:A *585:A 0
5 *562:A *600:A 5.71472e-05
6 *562:A *604:A 0
7 *562:A *236:8 0.000221943
*RES
1 a[2] *562:A 25.6929 
*END

*D_NET *26 0.000846109
*CONN
*P a[30] I
*I *563:A I *D sky130_fd_sc_hd__buf_1
*CAP
1 a[30] 0.000379854
2 *563:A 0.000379854
3 *563:A *596:A 2.25951e-05
4 *563:A *232:10 3.18676e-05
5 *561:A *563:A 3.19385e-05
*RES
1 a[30] *563:A 22.7481 
*END

*D_NET *27 0.00276056
*CONN
*P a[31] I
*I *564:A I *D sky130_fd_sc_hd__clkbuf_1
*CAP
1 a[31] 0.000991841
2 *564:A 0.000991841
3 *564:A *601:A 0
4 *560:A *564:A 0.00022263
5 *561:A *564:A 0.000192445
6 *610:A *564:A 0.000361806
*RES
1 a[31] *564:A 24.7511 
*END

*D_NET *28 0.00309608
*CONN
*P a[3] I
*I *565:A I *D sky130_fd_sc_hd__clkbuf_1
*CAP
1 a[3] 0.000859685
2 *565:A 0.000859685
3 *565:A *497:A_N 2.65105e-05
4 *565:A *573:A 0
5 *565:A *578:A 9.60337e-06
6 *565:A *201:18 5.7661e-06
7 *565:A *221:10 5.30637e-06
8 *565:A *238:10 0
9 *547:A *565:A 0.00132952
*RES
1 a[3] *565:A 34.4607 
*END

*D_NET *29 0.000975608
*CONN
*P a[4] I
*I *566:A I *D sky130_fd_sc_hd__clkbuf_1
*CAP
1 a[4] 0.000459231
2 *566:A 0.000459231
3 *566:A *432:A 5.71472e-05
4 *566:A *596:A 0
5 *566:A *603:A 0
*RES
1 a[4] *566:A 22.4429 
*END

*D_NET *30 0.00109935
*CONN
*P a[5] I
*I *567:A I *D sky130_fd_sc_hd__clkbuf_1
*CAP
1 a[5] 0.000533742
2 *567:A 0.000533742
3 *567:A *432:A 3.18676e-05
4 *567:A *601:A 0
5 *567:A *603:A 0
6 *560:A *567:A 0
7 *561:A *567:A 0
*RES
1 a[5] *567:A 23.3893 
*END

*D_NET *31 0.000894429
*CONN
*P a[6] I
*I *568:A I *D sky130_fd_sc_hd__clkbuf_1
*CAP
1 a[6] 0.000375544
2 *568:A 0.000375544
3 *568:A *573:A 0.000143341
4 *568:A *604:A 0
5 *568:A *605:A 0
*RES
1 a[6] *568:A 22.4429 
*END

*D_NET *32 0.00132078
*CONN
*P a[7] I
*I *570:A I *D sky130_fd_sc_hd__clkbuf_1
*CAP
1 a[7] 0.000593728
2 *570:A 0.000593728
3 *570:A *491:A_N 5.52238e-05
4 *570:A *491:B 7.80983e-05
5 *570:A *605:A 0
6 *610:A *570:A 0
*RES
1 a[7] *570:A 25.2821 
*END

*D_NET *33 0.00282168
*CONN
*P a[8] I
*I *571:A I *D sky130_fd_sc_hd__clkbuf_1
*CAP
1 a[8] 0.000945887
2 *571:A 0.000945887
3 *571:A *445:A 2.59355e-05
4 *571:A *533:B1 0.000173804
5 *571:A *575:A 0
6 *571:A *576:A 0.000264431
7 *571:A *587:A 0
8 *571:A *606:A 0.000102046
9 *571:A *117:12 3.38136e-05
10 *571:A *120:10 8.53928e-05
11 *571:A *164:10 0.000244478
*RES
1 a[8] *571:A 26.1713 
*END

*D_NET *34 0.000391627
*CONN
*P a[9] I
*I *572:A I *D sky130_fd_sc_hd__clkbuf_1
*CAP
1 a[9] 0.000121079
2 *572:A 0.000121079
3 *572:A *577:A 7.3448e-05
4 *572:A *607:A 7.60209e-05
*RES
1 a[9] *572:A 18.0508 
*END

*D_NET *35 0.00456351
*CONN
*P b[0] I
*I *573:A I *D sky130_fd_sc_hd__clkbuf_1
*CAP
1 b[0] 0.0015022
2 *573:A 0.0015022
3 *573:A *579:A 0.00019916
4 *573:A *585:A 0.000410646
5 *573:A *604:A 0.0001354
6 *573:A *99:12 2.79092e-05
7 *573:A *186:16 1.50563e-05
8 *573:A *201:18 0.000146591
9 *573:A *204:12 0.000153054
10 *573:A *221:10 0.000185643
11 *573:A *240:12 0
12 *550:A *573:A 0.000142315
13 *565:A *573:A 0
14 *568:A *573:A 0.000143341
*RES
1 b[0] *573:A 38.8014 
*END

*D_NET *36 0.0018538
*CONN
*P b[10] I
*I *574:A I *D sky130_fd_sc_hd__clkbuf_1
*CAP
1 b[10] 0.000597368
2 *574:A 0.000597368
3 *574:A *514:B 5.68306e-05
4 *574:A *517:A_N 0
5 *574:A *517:B 0.000172007
6 *574:A *532:A2 0
7 *574:A *575:A 0
8 *574:A *587:A 0
9 *574:A *118:10 0.000150592
10 *574:A *164:10 0.000271345
11 *574:A *194:14 8.28717e-06
12 *569:A *574:A 0
*RES
1 b[10] *574:A 26.7464 
*END

*D_NET *37 0.00149858
*CONN
*P b[11] I
*I *575:A I *D sky130_fd_sc_hd__clkbuf_1
*CAP
1 b[11] 0.000573457
2 *575:A 0.000573457
3 *575:A *205:8 0.00010096
4 *575:A *211:12 1.33343e-05
5 *552:A *575:A 0
6 *569:A *575:A 0.000237375
7 *571:A *575:A 0
8 *574:A *575:A 0
*RES
1 b[11] *575:A 34.0857 
*END

*D_NET *38 0.00295851
*CONN
*P b[12] I
*I *576:A I *D sky130_fd_sc_hd__buf_1
*CAP
1 b[12] 0.000824205
2 *576:A 0.000824205
3 *576:A *533:B1 4.29179e-05
4 *576:A *120:10 0.00011806
5 *552:A *576:A 0.000364645
6 *571:A *576:A 0.000264431
7 *580:A *576:A 0.000520048
*RES
1 b[12] *576:A 28.9596 
*END

*D_NET *39 0.000494733
*CONN
*P b[13] I
*I *577:A I *D sky130_fd_sc_hd__buf_1
*CAP
1 b[13] 0.000167826
2 *577:A 0.000167826
3 *577:A *213:8 1.21859e-05
4 *572:A *577:A 7.3448e-05
5 *591:A *577:A 7.3448e-05
*RES
1 b[13] *577:A 18.9615 
*END

*D_NET *40 0.000463668
*CONN
*P b[14] I
*I *578:A I *D sky130_fd_sc_hd__clkbuf_1
*CAP
1 b[14] 0.000158365
2 *578:A 0.000158365
3 *578:A *238:10 0
4 *565:A *578:A 9.60337e-06
5 *602:A *578:A 7.03321e-05
6 *608:A *578:A 6.70017e-05
*RES
1 b[14] *578:A 18.0508 
*END

*D_NET *41 0.00372166
*CONN
*P b[15] I
*I *579:A I *D sky130_fd_sc_hd__clkbuf_1
*CAP
1 b[15] 0.00173094
2 *579:A 0.00173094
3 *579:A *201:18 0
4 *547:A *579:A 6.06115e-05
5 *550:A *579:A 0
6 *573:A *579:A 0.00019916
*RES
1 b[15] *579:A 28.9782 
*END

*D_NET *42 0.00100541
*CONN
*P b[16] I
*I *581:A I *D sky130_fd_sc_hd__clkbuf_1
*CAP
1 b[16] 0.000472349
2 *581:A 0.000472349
3 *581:A *582:A 3.19385e-05
4 *581:A *595:A 0
5 *581:A *599:A 0
6 *581:A *235:10 0
7 *609:A *581:A 2.87684e-05
*RES
1 b[16] *581:A 20.6803 
*END

*D_NET *43 0.000993685
*CONN
*P b[17] I
*I *582:A I *D sky130_fd_sc_hd__clkbuf_1
*CAP
1 b[17] 0.000316017
2 *582:A 0.000316017
3 *582:A *595:A 0.000272565
4 *582:A *231:10 5.71472e-05
5 *581:A *582:A 3.19385e-05
*RES
1 b[17] *582:A 22.141 
*END

*D_NET *44 0.000442823
*CONN
*P b[18] I
*I *583:A I *D sky130_fd_sc_hd__clkbuf_1
*CAP
1 b[18] 0.000122881
2 *583:A 0.000122881
3 *583:A *113:16 4.75911e-05
4 *548:A *583:A 7.3448e-05
5 *549:A *583:A 7.60209e-05
*RES
1 b[18] *583:A 18.3544 
*END

*D_NET *45 0.00393337
*CONN
*P b[19] I
*I *584:A I *D sky130_fd_sc_hd__buf_1
*CAP
1 b[19] 0.00130366
2 *584:A 0.00130366
3 *584:A *438:A 0.000139625
4 *584:A *546:CLK 0.000613583
5 *584:A *586:A 0.00023941
6 *580:A *584:A 0.000333436
*RES
1 b[19] *584:A 32.8282 
*END

*D_NET *46 0.00375654
*CONN
*P b[1] I
*I *585:A I *D sky130_fd_sc_hd__clkbuf_1
*CAP
1 b[1] 0.00112904
2 *585:A 0.00112904
3 *585:A *494:A_N 0
4 *585:A *499:A_N 1.41029e-05
5 *585:A *604:A 4.07351e-05
6 *585:A *99:12 2.56694e-05
7 *585:A *201:18 0.000686705
8 *585:A *240:12 7.30114e-05
9 *550:A *585:A 0.000247596
10 *562:A *585:A 0
11 *573:A *585:A 0.000410646
*RES
1 b[1] *585:A 30.2797 
*END

*D_NET *47 0.00093333
*CONN
*P b[20] I
*I *586:A I *D sky130_fd_sc_hd__clkbuf_1
*CAP
1 b[20] 0.000317935
2 *586:A 0.000317935
3 *586:A *438:A 5.52238e-05
4 *586:A *478:B2 0
5 *586:A *479:A 2.8266e-06
6 *551:A *586:A 0
7 *584:A *586:A 0.00023941
*RES
1 b[20] *586:A 21.8357 
*END

*D_NET *48 0.00579626
*CONN
*P b[21] I
*I *587:A I *D sky130_fd_sc_hd__clkbuf_1
*CAP
1 b[21] 0.0024316
2 *587:A 0.0024316
3 *587:A *471:B 9.97164e-05
4 *587:A *473:A 4.41948e-05
5 *587:A *474:A_N 0
6 *587:A *517:B 0
7 *587:A *606:A 0.000254658
8 *587:A *607:A 3.292e-05
9 *587:A *220:36 0.00050157
10 *558:A *587:A 0
11 *571:A *587:A 0
12 *574:A *587:A 0
*RES
1 b[21] *587:A 36.521 
*END

*D_NET *49 0.000919813
*CONN
*P b[22] I
*I *588:A I *D sky130_fd_sc_hd__clkbuf_1
*CAP
1 b[22] 0.000403019
2 *588:A 0.000403019
3 *588:A *590:A 0
4 *554:A *588:A 0
5 *557:A *588:A 0.000113776
*RES
1 b[22] *588:A 21.8357 
*END

*D_NET *50 0.0010543
*CONN
*P b[23] I
*I *589:A I *D sky130_fd_sc_hd__clkbuf_1
*CAP
1 b[23] 0.00045692
2 *589:A 0.00045692
3 *589:A *438:A 0
4 *589:A *473:A 6.07933e-05
5 *589:A *477:D 5.52302e-05
6 *589:A *542:B2 2.44318e-05
7 *589:A *546:CLK 0
8 *554:A *589:A 0
*RES
1 b[23] *589:A 22.9786 
*END

*D_NET *51 0.000987995
*CONN
*P b[24] I
*I *590:A I *D sky130_fd_sc_hd__clkbuf_1
*CAP
1 b[24] 0.000470778
2 *590:A 0.000470778
3 *590:A *468:A1 4.1331e-06
4 *590:A *469:B 3.48705e-05
5 *590:A *226:8 7.43578e-06
6 *556:A *590:A 0
7 *557:A *590:A 0
8 *588:A *590:A 0
*RES
1 b[24] *590:A 22.7821 
*END

*D_NET *52 0.00303512
*CONN
*P b[25] I
*I *592:A I *D sky130_fd_sc_hd__clkbuf_1
*CAP
1 b[25] 0.00140759
2 *592:A 0.00140759
3 *592:A z 0
4 *592:A *460:A_N 1.72894e-05
5 *592:A *464:A1 5.52238e-05
6 *592:A *464:A2 5.33005e-05
7 *592:A *464:B1 9.16173e-05
8 *592:A *469:A 2.51343e-06
9 *592:A *594:A 0
10 *592:A *229:12 0
11 *553:A *592:A 0
12 *555:A *592:A 0
*RES
1 b[25] *592:A 38.425 
*END

*D_NET *53 0.000730037
*CONN
*P b[26] I
*I *593:A I *D sky130_fd_sc_hd__clkbuf_1
*CAP
1 b[26] 0.000238496
2 *593:A 0.000238496
3 *593:A z 5.80381e-05
4 *593:A *468:A1 0
5 *593:A *192:10 0
6 *593:A *229:12 3.15196e-05
7 *555:A *593:A 8.3984e-05
8 *556:A *593:A 0
9 *557:A *593:A 7.95028e-05
*RES
1 b[26] *593:A 19.6407 
*END

*D_NET *54 0.000642977
*CONN
*P b[27] I
*I *594:A I *D sky130_fd_sc_hd__clkbuf_1
*CAP
1 b[27] 0.000294222
2 *594:A 0.000294222
3 *594:A *599:A 2.25951e-05
4 *559:A *594:A 3.19385e-05
5 *592:A *594:A 0
*RES
1 b[27] *594:A 20.7838 
*END

*D_NET *55 0.00100762
*CONN
*P b[28] I
*I *595:A I *D sky130_fd_sc_hd__clkbuf_1
*CAP
1 b[28] 0.000351557
2 *595:A 0.000351557
3 *595:A *538:A2 0
4 *595:A *596:A 0
5 *595:A *598:A 3.19385e-05
6 *595:A *231:10 0
7 *581:A *595:A 0
8 *582:A *595:A 0.000272565
*RES
1 b[28] *595:A 23.5839 
*END

*D_NET *56 0.00102458
*CONN
*P b[29] I
*I *596:A I *D sky130_fd_sc_hd__clkbuf_1
*CAP
1 b[29] 0.000432011
2 *596:A 0.000432011
3 *596:A *432:A 0
4 *596:A *598:A 2.25951e-05
5 *596:A *149:10 0.000115369
6 *596:A *232:10 0
7 *561:A *596:A 0
8 *563:A *596:A 2.25951e-05
9 *566:A *596:A 0
10 *595:A *596:A 0
*RES
1 b[29] *596:A 22.6764 
*END

*D_NET *57 0.00219694
*CONN
*P b[2] I
*I *597:A I *D sky130_fd_sc_hd__buf_1
*CAP
1 b[2] 0.000813877
2 *597:A 0.000813877
3 *597:A *495:B 0
4 *597:A *497:B 0.000414613
5 *597:A *498:B 1.38106e-05
6 *597:A *528:A1 8.94107e-05
7 *597:A *528:A2 4.53019e-05
8 *597:A *600:A 0
9 *597:A *233:8 0
10 *597:A *238:10 6.05161e-06
11 *547:A *597:A 0
12 *602:A *597:A 0
*RES
1 b[2] *597:A 30.3357 
*END

*D_NET *58 0.000698855
*CONN
*P b[30] I
*I *598:A I *D sky130_fd_sc_hd__clkbuf_1
*CAP
1 b[30] 0.000322161
2 *598:A 0.000322161
3 *598:A *149:10 0
4 *598:A *149:12 0
5 *595:A *598:A 3.19385e-05
6 *596:A *598:A 2.25951e-05
*RES
1 b[30] *598:A 21.6946 
*END

*D_NET *59 0.000517183
*CONN
*P b[31] I
*I *599:A I *D sky130_fd_sc_hd__buf_1
*CAP
1 b[31] 0.000235997
2 *599:A 0.000235997
3 *559:A *599:A 0
4 *581:A *599:A 0
5 *594:A *599:A 2.25951e-05
6 *609:A *599:A 2.25951e-05
*RES
1 b[31] *599:A 18.73 
*END

*D_NET *60 0.00116536
*CONN
*P b[3] I
*I *600:A I *D sky130_fd_sc_hd__clkbuf_1
*CAP
1 b[3] 0.000541892
2 *600:A 0.000541892
3 *600:A *236:8 2.44318e-05
4 *562:A *600:A 5.71472e-05
5 *597:A *600:A 0
*RES
1 b[3] *600:A 23.8 
*END

*D_NET *61 0.00103956
*CONN
*P b[4] I
*I *601:A I *D sky130_fd_sc_hd__clkbuf_1
*CAP
1 b[4] 0.000480046
2 *601:A 0.000480046
3 *601:A *432:A 7.94632e-05
4 *564:A *601:A 0
5 *567:A *601:A 0
6 *610:A *601:A 0
*RES
1 b[4] *601:A 23.2643 
*END

*D_NET *62 0.00110447
*CONN
*P b[5] I
*I *603:A I *D sky130_fd_sc_hd__clkbuf_1
*CAP
1 b[5] 0.000335763
2 *603:A 0.000335763
3 *603:A *432:A 5.71472e-05
4 *560:A *603:A 0.000368929
5 *561:A *603:A 6.8646e-06
6 *566:A *603:A 0
7 *567:A *603:A 0
*RES
1 b[5] *603:A 22.4429 
*END

*D_NET *63 0.00104983
*CONN
*P b[6] I
*I *604:A I *D sky130_fd_sc_hd__clkbuf_1
*CAP
1 b[6] 0.000433946
2 *604:A 0.000433946
3 *550:A *604:A 5.80706e-06
4 *562:A *604:A 0
5 *568:A *604:A 0
6 *573:A *604:A 0.0001354
7 *585:A *604:A 4.07351e-05
*RES
1 b[6] *604:A 23.2643 
*END

*D_NET *64 0.00104856
*CONN
*P b[7] I
*I *605:A I *D sky130_fd_sc_hd__clkbuf_1
*CAP
1 b[7] 0.000519394
2 *605:A 0.000519394
3 *605:A *491:A_N 4.46186e-06
4 *605:A *241:6 5.30637e-06
5 *568:A *605:A 0
6 *570:A *605:A 0
*RES
1 b[7] *605:A 23.3893 
*END

*D_NET *65 0.00124401
*CONN
*P b[8] I
*I *606:A I *D sky130_fd_sc_hd__buf_1
*CAP
1 b[8] 0.000331976
2 *606:A 0.000331976
3 *606:A *447:A 7.6644e-05
4 *606:A *517:B 9.10498e-05
5 *606:A *607:A 5.56565e-05
6 *606:A *194:14 0
7 *571:A *606:A 0.000102046
8 *587:A *606:A 0.000254658
*RES
1 b[8] *606:A 21.3027 
*END

*D_NET *66 0.000544691
*CONN
*P b[9] I
*I *607:A I *D sky130_fd_sc_hd__buf_1
*CAP
1 b[9] 0.000190047
2 *607:A 0.000190047
3 *572:A *607:A 7.60209e-05
4 *587:A *607:A 3.292e-05
5 *606:A *607:A 5.56565e-05
*RES
1 b[9] *607:A 18.0508 
*END

*D_NET *67 0.00292896
*CONN
*P clk I
*I *546:CLK I *D sky130_fd_sc_hd__dfxtp_1
*CAP
1 clk 0.000917283
2 *546:CLK 0.000917283
3 *546:CLK *439:A 0.000121474
4 *546:CLK *474:A_N 8.89855e-05
5 *546:CLK *477:C 0
6 *546:CLK *479:A 0
7 *546:CLK *480:C 5.44167e-05
8 *546:CLK *546:D 2.66847e-05
9 *546:CLK *79:14 7.2754e-05
10 *546:CLK *84:10 0.000106924
11 *546:CLK *220:36 9.57722e-06
12 *584:A *546:CLK 0.000613583
13 *589:A *546:CLK 0
*RES
1 clk *546:CLK 36.5143 
*END

*D_NET *68 0.000897198
*CONN
*P z O
*I *611:X O *D sky130_fd_sc_hd__buf_2
*CAP
1 z 0.000339461
2 *611:X 0.000339461
3 *555:A z 9.96264e-05
4 *559:A z 6.06115e-05
5 *592:A z 0
6 *593:A z 5.80381e-05
*RES
1 *611:X z 20.5501 
*END

*D_NET *69 0.000886066
*CONN
*I *546:D I *D sky130_fd_sc_hd__dfxtp_1
*I *545:X O *D sky130_fd_sc_hd__o31a_1
*CAP
1 *546:D 0.000294367
2 *545:X 0.000294367
3 *546:D *545:A3 0.000270647
4 *546:CLK *546:D 2.66847e-05
*RES
1 *545:X *546:D 32.908 
*END

*D_NET *70 0.00206985
*CONN
*I *540:A3 I *D sky130_fd_sc_hd__a41oi_1
*I *469:A I *D sky130_fd_sc_hd__or2_1
*I *466:X O *D sky130_fd_sc_hd__a22o_1
*CAP
1 *540:A3 0.000104899
2 *469:A 0.000178415
3 *466:X 0.000298262
4 *70:8 0.000581576
5 *469:A *228:12 1.40415e-05
6 *540:A3 *462:A 9.41642e-05
7 *540:A3 *462:B 9.41642e-05
8 *540:A3 *181:8 9.0573e-05
9 *70:8 *469:B 4.29179e-05
10 *70:8 *540:A4 0.000242893
11 *70:8 *181:8 1.02504e-05
12 *70:8 *228:12 0.000315179
13 *592:A *469:A 2.51343e-06
*RES
1 *466:X *70:8 19.9964 
2 *70:8 *469:A 16.5321 
3 *70:8 *540:A3 16.0857 
*END

*D_NET *71 0.00233012
*CONN
*I *540:A4 I *D sky130_fd_sc_hd__a41oi_1
*I *468:B1 I *D sky130_fd_sc_hd__o21ai_1
*I *467:Y O *D sky130_fd_sc_hd__nand2b_1
*CAP
1 *540:A4 0.000358301
2 *468:B1 0.000105574
3 *467:Y 0.00016311