*SPEF "ieee 1481-1999"
*DESIGN "comp32"
*DATE "20:14:27 Monday April 29, 2024"
*VENDOR "The OpenROAD Project"
*PROGRAM "OpenROAD"
*VERSION "0889970d1790a2617e69f253221b8bd7626e51dc"
*DESIGN_FLOW "NAME_SCOPE LOCAL" "PIN_CAP NONE"
*DIVIDER /
*DELIMITER :
*BUS_DELIMITER []
*T_UNIT 1 NS
*C_UNIT 1 PF
*R_UNIT 1 OHM
*L_UNIT 1 HENRY

*NAME_MAP
*3 a[0]
*4 a[10]
*5 a[11]
*6 a[12]
*7 a[13]
*8 a[14]
*9 a[15]
*10 a[16]
*11 a[17]
*12 a[18]
*13 a[19]
*14 a[1]
*15 a[20]
*16 a[21]
*17 a[22]
*18 a[23]
*19 a[24]
*20 a[25]
*21 a[26]
*22 a[27]
*23 a[28]
*24 a[29]
*25 a[2]
*26 a[30]
*27 a[31]
*28 a[3]
*29 a[4]
*30 a[5]
*31 a[6]
*32 a[7]
*33 a[8]
*34 a[9]
*35 b[0]
*36 b[10]
*37 b[11]
*38 b[12]
*39 b[13]
*40 b[14]
*41 b[15]
*42 b[16]
*43 b[17]
*44 b[18]
*45 b[19]
*46 b[1]
*47 b[20]
*48 b[21]
*49 b[22]
*50 b[23]
*51 b[24]
*52 b[25]
*53 b[26]
*54 b[27]
*55 b[28]
*56 b[29]
*57 b[2]
*58 b[30]
*59 b[31]
*60 b[3]
*61 b[4]
*62 b[5]
*63 b[6]
*64 b[7]
*65 b[8]
*66 b[9]
*67 clk
*68 z
*69 _000_
*70 _001_
*71 _002_
*72 _003_
*73 _004_
*74 _005_
*75 _006_
*76 _007_
*77 _008_
*78 _009_
*79 _010_
*80 _011_
*81 _012_
*82 _013_
*83 _014_
*84 _015_
*85 _016_
*86 _017_
*87 _018_
*88 _019_
*89 _020_
*90 _021_
*91 _022_
*92 _023_
*93 _024_
*94 _025_
*95 _026_
*96 _027_
*97 _028_
*98 _029_
*99 _030_
*100 _031_
*101 _032_
*102 _033_
*103 _034_
*104 _035_
*105 _036_
*106 _037_
*107 _038_
*108 _039_
*109 _040_
*110 _041_
*111 _042_
*112 _043_
*113 _044_
*114 _045_
*115 _046_
*116 _047_
*117 _048_
*118 _049_
*119 _050_
*120 _051_
*121 _052_
*122 _053_
*123 _054_
*124 _055_
*125 _056_
*126 _057_
*127 _058_
*128 _059_
*129 _060_
*130 _061_
*131 _062_
*132 _063_
*133 _064_
*134 _065_
*135 _066_
*136 _067_
*137 _068_
*138 _069_
*139 _070_
*140 _071_
*141 _072_
*142 _073_
*143 _074_
*144 _075_
*145 _076_
*146 _077_
*147 _078_
*148 _079_
*149 _080_
*150 _081_
*151 _082_
*152 _083_
*153 _084_
*154 _085_
*155 _086_
*156 _087_
*157 _088_
*158 _089_
*159 _090_
*160 _091_
*161 _092_
*162 _093_
*163 _094_
*164 _095_
*165 _096_
*166 _097_
*167 _098_
*168 _099_
*169 _100_
*170 _101_
*171 _102_
*172 _103_
*173 _104_
*174 _105_
*175 _106_
*176 _107_
*177 _108_
*178 _109_
*179 _110_
*180 _111_
*181 _112_
*182 _113_
*183 net1
*184 net10
*185 net11
*186 net12
*187 net13
*188 net14
*189 net15
*190 net16
*191 net17
*192 net18
*193 net19
*194 net2
*195 net20
*196 net21
*197 net22
*198 net23
*199 net24
*200 net25
*201 net26
*202 net27
*203 net28
*204 net29
*205 net3
*206 net30
*207 net31
*208 net32
*209 net33
*210 net34
*211 net35
*212 net36
*213 net37
*214 net38
*215 net39
*216 net4
*217 net40
*218 net41
*219 net42
*220 net43
*221 net44
*222 net45
*223 net46
*224 net47
*225 net48
*226 net49
*227 net5
*228 net50
*229 net51
*230 net52
*231 net53
*232 net54
*233 net55
*234 net56
*235 net57
*236 net58
*237 net59
*238 net6
*239 net60
*240 net61
*241 net62
*242 net63
*243 net64
*244 net65
*245 net66
*246 net67
*247 net7
*248 net8
*249 net9
*250 FILLER_0_0_20
*251 FILLER_0_0_35
*252 FILLER_0_0_57
*253 FILLER_0_0_6
*254 FILLER_0_0_90
*255 FILLER_0_10_29
*256 FILLER_0_10_3
*257 FILLER_0_10_41
*258 FILLER_0_10_53
*259 FILLER_0_10_65
*260 FILLER_0_10_7
*261 FILLER_0_10_83
*262 FILLER_0_11_16
*263 FILLER_0_11_30
*264 FILLER_0_11_42
*265 FILLER_0_11_54
*266 FILLER_0_11_57
*267 FILLER_0_11_6
*268 FILLER_0_11_69
*269 FILLER_0_11_77
*270 FILLER_0_12_24
*271 FILLER_0_12_29
*272 FILLER_0_12_3
*273 FILLER_0_12_41
*274 FILLER_0_12_53
*275 FILLER_0_12_65
*276 FILLER_0_12_71
*277 FILLER_0_12_85
*278 FILLER_0_13_23
*279 FILLER_0_13_29
*280 FILLER_0_13_3
*281 FILLER_0_13_33
*282 FILLER_0_13_52
*283 FILLER_0_13_57
*284 FILLER_0_13_63
*285 FILLER_0_13_79
*286 FILLER_0_13_88
*287 FILLER_0_14_3
*288 FILLER_0_14_36
*289 FILLER_0_14_63
*290 FILLER_0_14_76
*291 FILLER_0_14_91
*292 FILLER_0_15_15
*293 FILLER_0_15_26
*294 FILLER_0_15_29
*295 FILLER_0_15_37
*296 FILLER_0_15_55
*297 FILLER_0_15_57
*298 FILLER_0_15_62
*299 FILLER_0_15_90
*300 FILLER_0_1_47
*301 FILLER_0_1_64
*302 FILLER_0_1_7
*303 FILLER_0_1_79
*304 FILLER_0_1_91
*305 FILLER_0_2_23
*306 FILLER_0_2_27
*307 FILLER_0_2_29
*308 FILLER_0_2_3
*309 FILLER_0_2_49
*310 FILLER_0_2_61
*311 FILLER_0_2_79
*312 FILLER_0_2_85
*313 FILLER_0_3_25
*314 FILLER_0_3_3
*315 FILLER_0_3_37
*316 FILLER_0_3_49
*317 FILLER_0_3_55
*318 FILLER_0_3_57
*319 FILLER_0_3_69
*320 FILLER_0_3_88
*321 FILLER_0_4_22
*322 FILLER_0_4_29
*323 FILLER_0_4_53
*324 FILLER_0_4_65
*325 FILLER_0_4_82
*326 FILLER_0_4_88
*327 FILLER_0_5_13
*328 FILLER_0_5_17
*329 FILLER_0_5_21
*330 FILLER_0_5_3
*331 FILLER_0_5_51
*332 FILLER_0_5_55
*333 FILLER_0_5_57
*334 FILLER_0_5_74
*335 FILLER_0_5_78
*336 FILLER_0_5_88
*337 FILLER_0_6_14
*338 FILLER_0_6_23
*339 FILLER_0_6_27
*340 FILLER_0_6_29
*341 FILLER_0_6_41
*342 FILLER_0_6_49
*343 FILLER_0_6_55
*344 FILLER_0_6_6
*345 FILLER_0_6_72
*346 FILLER_0_7_18
*347 FILLER_0_7_30
*348 FILLER_0_7_6
*349 FILLER_0_7_69
*350 FILLER_0_7_75
*351 FILLER_0_7_88
*352 FILLER_0_8_21
*353 FILLER_0_8_25
*354 FILLER_0_8_41
*355 FILLER_0_8_53
*356 FILLER_0_8_57
*357 FILLER_0_8_63
*358 FILLER_0_8_68
*359 FILLER_0_8_80
*360 FILLER_0_8_85
*361 FILLER_0_8_9
*362 FILLER_0_9_12
*363 FILLER_0_9_16
*364 FILLER_0_9_24
*365 FILLER_0_9_35
*366 FILLER_0_9_47
*367 FILLER_0_9_55
*368 FILLER_0_9_57
*369 FILLER_0_9_69
*370 FILLER_0_9_77
*371 PHY_EDGE_ROW_0_Left_16
*372 PHY_EDGE_ROW_0_Right_0
*373 PHY_EDGE_ROW_10_Left_26
*374 PHY_EDGE_ROW_10_Right_10
*375 PHY_EDGE_ROW_11_Left_27
*376 PHY_EDGE_ROW_11_Right_11
*377 PHY_EDGE_ROW_12_Left_28
*378 PHY_EDGE_ROW_12_Right_12
*379 PHY_EDGE_ROW_13_Left_29
*380 PHY_EDGE_ROW_13_Right_13
*381 PHY_EDGE_ROW_14_Left_30
*382 PHY_EDGE_ROW_14_Right_14
*383 PHY_EDGE_ROW_15_Left_31
*384 PHY_EDGE_ROW_15_Right_15
*385 PHY_EDGE_ROW_1_Left_17
*386 PHY_EDGE_ROW_1_Right_1
*387 PHY_EDGE_ROW_2_Left_18
*388 PHY_EDGE_ROW_2_Right_2
*389 PHY_EDGE_ROW_3_Left_19
*390 PHY_EDGE_ROW_3_Right_3
*391 PHY_EDGE_ROW_4_Left_20
*392 PHY_EDGE_ROW_4_Right_4
*393 PHY_EDGE_ROW_5_Left_21
*394 PHY_EDGE_ROW_5_Right_5
*395 PHY_EDGE_ROW_6_Left_22
*396 PHY_EDGE_ROW_6_Right_6
*397 PHY_EDGE_ROW_7_Left_23
*398 PHY_EDGE_ROW_7_Right_7
*399 PHY_EDGE_ROW_8_Left_24
*400 PHY_EDGE_ROW_8_Right_8
*401 PHY_EDGE_ROW_9_Left_25
*402 PHY_EDGE_ROW_9_Right_9
*403 TAP_TAPCELL_ROW_0_32
*404 TAP_TAPCELL_ROW_0_33
*405 TAP_TAPCELL_ROW_0_34
*406 TAP_TAPCELL_ROW_10_48
*407 TAP_TAPCELL_ROW_10_49
*408 TAP_TAPCELL_ROW_11_50
*409 TAP_TAPCELL_ROW_12_51
*410 TAP_TAPCELL_ROW_12_52
*411 TAP_TAPCELL_ROW_13_53
*412 TAP_TAPCELL_ROW_14_54
*413 TAP_TAPCELL_ROW_14_55
*414 TAP_TAPCELL_ROW_15_56
*415 TAP_TAPCELL_ROW_15_57
*416 TAP_TAPCELL_ROW_15_58
*417 TAP_TAPCELL_ROW_1_35
*418 TAP_TAPCELL_ROW_2_36
*419 TAP_TAPCELL_ROW_2_37
*420 TAP_TAPCELL_ROW_3_38
*421 TAP_TAPCELL_ROW_4_39
*422 TAP_TAPCELL_ROW_4_40
*423 TAP_TAPCELL_ROW_5_41
*424 TAP_TAPCELL_ROW_6_42
*425 TAP_TAPCELL_ROW_6_43
*426 TAP_TAPCELL_ROW_7_44
*427 TAP_TAPCELL_ROW_8_45
*428 TAP_TAPCELL_ROW_8_46
*429 TAP_TAPCELL_ROW_9_47
*430 _114_
*431 _115_
*432 _116_
*433 _117_
*434 _118_
*435 _119_
*436 _120_
*437 _121_
*438 _122_
*439 _123_
*440 _124_
*441 _125_
*442 _126_
*443 _127_
*444 _128_
*445 _129_
*446 _130_
*447 _131_
*448 _132_
*449 _133_
*450 _134_
*451 _135_
*452 _136_
*453 _137_
*454 _138_
*455 _139_
*456 _140_
*457 _141_
*458 _142_
*459 _143_
*460 _144_
*461 _145_
*462 _146_
*463 _147_
*464 _148_
*465 _149_
*466 _150_
*467 _151_
*468 _152_
*469 _153_
*470 _154_
*471 _155_
*472 _156_
*473 _157_
*474 _158_
*475 _159_
*476 _160_
*477 _161_
*478 _162_
*479 _163_
*480 _164_
*481 _165_
*482 _166_
*483 _167_
*484 _168_
*485 _169_
*486 _170_
*487 _171_
*488 _172_
*489 _173_
*490 _174_
*491 _175_
*492 _176_
*493 _177_
*494 _178_
*495 _179_
*496 _180_
*497 _181_
*498 _182_
*499 _183_
*500 _184_
*501 _185_
*502 _186_
*503 _187_
*504 _188_
*505 _189_
*506 _190_
*507 _191_
*508 _192_
*509 _193_
*510 _194_
*511 _195_
*512 _196_
*513 _197_
*514 _198_
*515 _199_
*516 _200_
*517 _201_
*518 _202_
*519 _203_
*520 _204_
*521 _205_
*522 _206_
*523 _207_
*524 _208_
*525 _209_
*526 _210_
*527 _211_
*528 _212_
*529 _213_
*530 _214_
*531 _215_
*532 _216_
*533 _217_
*534 _218_
*535 _219_
*536 _220_
*537 _221_
*538 _222_
*539 _223_
*540 _224_
*541 _225_
*542 _226_
*543 _227_
*544 _228_
*545 input1
*546 input10
*547 input11
*548 input12
*549 input13
*550 input14
*551 input15
*552 input16
*553 input17
*554 input18
*555 input19
*556 input2
*557 input20
*558 input21
*559 input22
*560 input23
*561 input24
*562 input25
*563 input26
*564 input27
*565 input28
*566 input29
*567 input3
*568 input30
*569 input31
*570 input32
*571 input33
*572 input34
*573 input35
*574 input36
*575 input37
*576 input38
*577 input39
*578 input4
*579 input40
*580 input41
*581 input42
*582 input43
*583 input44
*584 input45
*585 input46
*586 input47
*587 input48
*588 input49
*589 input5
*590 input50
*591 input51
*592 input52
*593 input53
*594 input54
*595 input55
*596 input56
*597 input57
*598 input58
*599 input59
*600 input6
*601 input60
*602 input61
*603 input62
*604 input63
*605 input64
*606 input7
*607 input8
*608 input9
*609 output65
*610 rebuffer1
*611 rebuffer2

*PORTS
a[0] I
a[10] I
a[11] I
a[12] I
a[13] I
a[14] I
a[15] I
a[16] I
a[17] I
a[18] I
a[19] I
a[1] I
a[20] I
a[21] I
a[22] I
a[23] I
a[24] I
a[25] I
a[26] I
a[27] I
a[28] I
a[29] I
a[2] I
a[30] I
a[31] I
a[3] I
a[4] I
a[5] I
a[6] I
a[7] I
a[8] I
a[9] I
b[0] I
b[10] I
b[11] I
b[12] I
b[13] I
b[14] I
b[15] I
b[16] I
b[17] I
b[18] I
b[19] I
b[1] I
b[20] I
b[21] I
b[22] I
b[23] I
b[24] I
b[25] I
b[26] I
b[27] I
b[28] I
b[29] I
b[2] I
b[30] I
b[31] I
b[3] I
b[4] I
b[5] I
b[6] I
b[7] I
b[8] I
b[9] I
clk I
z O

*D_NET *3 0.00260236
*CONN
*P a[0] I
*I *545:A I *D sky130_fd_sc_hd__clkbuf_1
*CAP
1 a[0] 0.000874474
2 *545:A 0.000874474
3 *545:A *563:A 0.000647387
4 *545:A *576:A 0.000163199
5 *545:A *577:A 2.48672e-05
6 *545:A *600:A 1.79536e-05
*RES
1 a[0] *545:A 22.6172 
*END

*D_NET *4 0.00238795
*CONN
*P a[10] I
*I *556:A I *D sky130_fd_sc_hd__clkbuf_1
*CAP
1 a[10] 0.000909519
2 *556:A 0.000909519
3 *556:A *518:B1 0
4 *556:A *570:A 0
5 *556:A *585:A 0
6 *556:A *604:A 6.90876e-05
7 *556:A *605:A 0.000163199
8 *556:A *194:10 6.6925e-05
9 *556:A *242:6 0.000200615
10 *556:A *243:8 6.90876e-05
*RES
1 a[10] *556:A 21.255 
*END

*D_NET *5 0.00105763
*CONN
*P a[11] I
*I *567:A I *D sky130_fd_sc_hd__clkbuf_1
*CAP
1 a[11] 0.000460955
2 *567:A 0.000460955
3 *567:A *511:A_N 0
4 *567:A *516:D 3.07153e-05
5 *567:A *569:A 0
6 *567:A *572:A 0
7 *567:A *573:A 1.84044e-05
8 *567:A *205:8 8.65961e-05
*RES
1 a[11] *567:A 11.49 
*END

*D_NET *6 0.00340072
*CONN
*P a[12] I
*I *578:A I *D sky130_fd_sc_hd__clkbuf_1
*CAP
1 a[12] 0.000919429
2 *578:A 0.000919429
3 *578:A *438:A 0
4 *578:A *550:A 0
5 *578:A *569:A 9.86572e-05
6 *578:A *573:A 0.000378913
7 *578:A *574:A 0.000445173
8 *578:A *582:A 0.000254537
9 *578:A *117:12 9.0336e-05
10 *578:A *120:12 8.37909e-05
11 *578:A *164:14 0.000115464
12 *578:A *164:23 2.14129e-05
13 *578:A *212:18 7.35729e-05
*RES
1 a[12] *578:A 19.286 
*END

*D_NET *7 0.000545728
*CONN
*P a[13] I
*I *589:A I *D sky130_fd_sc_hd__clkbuf_1
*CAP
1 a[13] 0.000238328
2 *589:A 0.000238328
3 *589:A *442:A 0
4 *589:A *533:A3 0
5 *589:A *547:A 3.45358e-05
6 *589:A *575:A 3.45358e-05
7 *589:A *213:23 0
*RES
1 a[13] *589:A 7.16543 
*END

*D_NET *8 0.000439459
*CONN
*P a[14] I
*I *600:A I *D sky130_fd_sc_hd__clkbuf_1
*CAP
1 a[14] 0.000172516
2 *600:A 0.000172516
3 *600:A *548:A 3.15534e-05
4 *600:A *563:A 1.03833e-05
5 *600:A *576:A 3.45358e-05
6 *545:A *600:A 1.79536e-05
*RES
1 a[14] *600:A 6.04043 
*END

*D_NET *9 0.000502823
*CONN
*P a[15] I
*I *606:A I *D sky130_fd_sc_hd__clkbuf_1
*CAP
1 a[15] 0.000215647
2 *606:A 0.000215647
3 *606:A *503:B 0
4 *606:A *546:A 3.45358e-05
5 *606:A *576:A 3.6993e-05
6 *606:A *247:8 0
*RES
1 a[15] *606:A 6.91043 
*END

*D_NET *10 0.000724135
*CONN
*P a[16] I
*I *607:A I *D sky130_fd_sc_hd__clkbuf_1
*CAP
1 a[16] 0.000286399
2 *607:A 0.000286399
3 *607:A *579:A 0.000128846
4 *607:A *597:A 2.24901e-05
5 *607:A *235:10 0
*RES
1 a[16] *607:A 6.60503 
*END

*D_NET *11 0.00111721
*CONN
*P a[17] I
*I *608:A I *D sky130_fd_sc_hd__clkbuf_1
*CAP
1 a[17] 0.000403562
2 *608:A 0.000403562
3 *608:A *430:A 5.83121e-06
4 *608:A *562:A 0.000288608
5 *608:A *568:A 0
6 *608:A *599:A 0
7 *608:A *249:18 1.56428e-05
*RES
1 a[17] *608:A 11.655 
*END

*D_NET *12 0.000506258
*CONN
*P a[18] I
*I *546:A I *D sky130_fd_sc_hd__clkbuf_1
*CAP
1 a[18] 0.000218593
2 *546:A 0.000218593
3 *546:A *503:B 0
4 *546:A *581:A 3.45358e-05
5 *546:A *113:16 0
6 *606:A *546:A 3.45358e-05
*RES
1 a[18] *546:A 6.65543 
*END

*D_NET *13 0.000533152
*CONN
*P a[19] I
*I *547:A I *D sky130_fd_sc_hd__clkbuf_1
*CAP
1 a[19] 0.000145454
2 *547:A 0.000145454
3 *547:A *504:B 0
4 *547:A *533:A3 0.000164874
5 *547:A *581:A 3.58251e-05
6 *547:A *113:16 7.00889e-06
7 *589:A *547:A 3.45358e-05
*RES
1 a[19] *547:A 6.40043 
*END

*D_NET *14 0.00246746
*CONN
*P a[1] I
*I *548:A I *D sky130_fd_sc_hd__clkbuf_1
*CAP
1 a[1] 0.000882651
2 *548:A 0.000882651
3 *548:A *497:A_N 9.46776e-05
4 *548:A *525:B1 7.97096e-05
5 *548:A *527:A3 0.000107424
6 *548:A *566:A 0
7 *548:A *577:A 1.14255e-05
8 *548:A *583:A 0.000213462
9 *548:A *602:A 7.89884e-05
10 *548:A *186:14 4.82919e-05
11 *548:A *236:8 3.66286e-05
12 *600:A *548:A 3.15534e-05
*RES
1 a[1] *548:A 10.7723 
*END

*D_NET *15 0.00109277
*CONN
*P a[20] I
*I *549:A I *D sky130_fd_sc_hd__clkbuf_1
*CAP
1 a[20] 0.000509295
2 *549:A 0.000509295
3 *549:A *477:B 3.00381e-05
4 *549:A *550:A 0
5 *549:A *584:A 0
6 *549:A *187:6 2.30292e-05
7 *549:A *188:12 2.11084e-05
*RES
1 a[20] *549:A 12.18 
*END

*D_NET *16 0.000831925
*CONN
*P a[21] I
*I *550:A I *D sky130_fd_sc_hd__clkbuf_1
*CAP
1 a[21] 0.000340443
2 *550:A 0.000340443
3 *550:A *573:A 0
4 *550:A *574:A 0.000151039
5 *549:A *550:A 0
6 *578:A *550:A 0
*RES
1 a[21] *550:A 10.695 
*END

*D_NET *17 0.00288511
*CONN
*P a[22] I
*I *551:A I *D sky130_fd_sc_hd__clkbuf_1
*CAP
1 a[22] 0.00115047
2 *551:A 0.00115047
3 *551:A *459:A_N 0.000314745
4 *551:A *553:A 0.00010687
5 *551:A *590:A 0
6 *551:A *609:A 8.73389e-06
7 *551:A *193:12 0.000153816
*RES
1 a[22] *551:A 24.195 
*END

*D_NET *18 0.00105656
*CONN
*P a[23] I
*I *552:A I *D sky130_fd_sc_hd__clkbuf_1
*CAP
1 a[23] 0.000451467
2 *552:A 0.000451467
3 *552:A *471:A 1.08758e-05
4 *552:A *474:A_N 0.00012657
5 *552:A *586:A 0
6 *552:A *587:A 0
7 *552:A *224:6 1.61831e-05
*RES
1 a[23] *552:A 11.73 
*END

*D_NET *19 0.00241517
*CONN
*P a[24] I
*I *553:A I *D sky130_fd_sc_hd__clkbuf_1
*CAP
1 a[24] 0.000812038
2 *553:A 0.000812038
3 *553:A z 5.54727e-05
4 *553:A *459:A_N 0.000252798
5 *553:A *459:B 0.0001249
6 *553:A *462:A1 4.99619e-05
7 *553:A *554:A 0
8 *553:A *590:A 0
9 *553:A *591:A 0.000129898
10 *553:A *609:A 1.08758e-05
11 *553:A *229:8 6.03157e-05
12 *551:A *553:A 0.00010687
*RES
1 a[24] *553:A 20.25 
*END

*D_NET *20 0.000809069
*CONN
*P a[25] I
*I *554:A I *D sky130_fd_sc_hd__buf_1
*CAP
1 a[25] 0.000404535
2 *554:A 0.000404535
3 *554:A *588:A 0
4 *554:A *591:A 0
5 *554:A *192:12 0
6 *553:A *554:A 0
*RES
1 a[25] *554:A 10.35 
*END

*D_NET *21 0.00242865
*CONN
*P a[26] I
*I *555:A I *D sky130_fd_sc_hd__buf_1
*CAP
1 a[26] 0.000875668
2 *555:A 0.000875668
3 *555:A z 0
4 *555:A *466:B1 6.34766e-05
5 *555:A *467:B 8.70268e-05
6 *555:A *538:A4 3.18137e-05
7 *555:A *586:A 0
8 *555:A *588:A 5.8136e-05
9 *555:A *591:A 7.93843e-05
10 *555:A *609:A 1.19928e-05
11 *555:A *70:12 0.000115464
12 *555:A *189:12 6.97118e-05
13 *555:A *192:12 0
14 *555:A *193:12 4.41506e-05
15 *555:A *228:16 0.000116158
*RES
1 a[26] *555:A 12.3058 
*END

*D_NET *22 0.00154826
*CONN
*P a[27] I
*I *557:A I *D sky130_fd_sc_hd__clkbuf_1
*CAP
1 a[27] 0.000588396
2 *557:A 0.000588396
3 *557:A z 5.33544e-05
4 *557:A *458:A_N 0
5 *557:A *461:A_N 0.000122331
6 *557:A *592:A 8.6694e-05
7 *557:A *180:12 8.40213e-05
8 *557:A *195:10 2.50702e-05
*RES
1 a[27] *557:A 12.847 
*END

*D_NET *23 0.00113033
*CONN
*P a[28] I
*I *558:A I *D sky130_fd_sc_hd__clkbuf_1
*CAP
1 a[28] 0.000523727
2 *558:A 0.000523727
3 *558:A *562:A 8.28724e-05
4 *558:A *564:A 0
*RES
1 a[28] *558:A 10.9668 
*END

*D_NET *24 0.00193949
*CONN
*P a[29] I
*I *559:A I *D sky130_fd_sc_hd__buf_1
*CAP
1 a[29] 0.000836203
2 *559:A 0.000836203
3 *559:A *432:A 0
4 *559:A *501:B 0
5 *559:A *561:A 3.6993e-05
6 *559:A *562:A 0.000195202
7 *559:A *564:A 0
8 *559:A *565:A 0
9 *559:A *594:A 0
10 *559:A *601:A 2.09442e-05
11 *559:A *149:10 1.39456e-05
12 *559:A *199:8 0
13 *559:A *239:10 0
*RES
1 a[29] *559:A 10.879 
*END

*D_NET *25 0.00147982
*CONN
*P a[2] I
*I *560:A I *D sky130_fd_sc_hd__clkbuf_1
*CAP
1 a[2] 0.000488099
2 *560:A 0.000488099
3 *560:A *492:A_N 0.000207755
4 *560:A *492:B 1.16578e-05
5 *560:A *525:A1 4.77757e-05
6 *560:A *583:A 0
7 *560:A *598:A 5.94962e-05
8 *560:A *602:A 0
9 *560:A *236:8 0.000176938
*RES
1 a[2] *560:A 13.59 
*END

*D_NET *26 0.000796028
*CONN
*P a[30] I
*I *561:A I *D sky130_fd_sc_hd__buf_6
*CAP
1 a[30] 0.000335749
2 *561:A 0.000335749
3 *561:A *594:A 3.6993e-05
4 *561:A *196:10 5.05437e-05
5 *559:A *561:A 3.6993e-05
*RES
1 a[30] *561:A 9.14543 
*END

*D_NET *27 0.00255321
*CONN
*P a[31] I
*I *562:A I *D sky130_fd_sc_hd__clkbuf_1
*CAP
1 a[31] 0.000993264
2 *562:A 0.000993264
3 *562:A *599:A 0
4 *558:A *562:A 8.28724e-05
5 *559:A *562:A 0.000195202
6 *608:A *562:A 0.000288608
*RES
1 a[31] *562:A 10.3396 
*END

*D_NET *28 0.00238412
*CONN
*P a[3] I
*I *563:A I *D sky130_fd_sc_hd__clkbuf_1
*CAP
1 a[3] 0.000795523
2 *563:A 0.000795523
3 *563:A *495:A_N 8.8266e-05
4 *563:A *495:B 0
5 *563:A *526:A1 0
6 *563:A *526:A2 4.70343e-05
7 *563:A *571:A 0
8 *563:A *595:A 0
9 *563:A *238:10 0
10 *545:A *563:A 0.000647387
11 *600:A *563:A 1.03833e-05
*RES
1 a[3] *563:A 20.55 
*END

*D_NET *29 0.00146234
*CONN
*P a[4] I
*I *564:A I *D sky130_fd_sc_hd__clkbuf_1
*CAP
1 a[4] 0.000608543
2 *564:A 0.000608543
3 *564:A *431:A 2.11921e-05
4 *564:A *447:A 6.52265e-05
5 *564:A *601:A 0
6 *564:A *196:10 3.86529e-05
7 *564:A *199:8 0.000120186
8 *558:A *564:A 0
9 *559:A *564:A 0
*RES
1 a[4] *564:A 14.745 
*END

*D_NET *30 0.00100764
*CONN
*P a[5] I
*I *565:A I *D sky130_fd_sc_hd__clkbuf_1
*CAP
1 a[5] 0.000462801
2 *565:A 0.000462801
3 *565:A *446:A 5.53774e-05
4 *565:A *599:A 0
5 *565:A *601:A 0
6 *565:A *239:10 2.66586e-05
7 *559:A *565:A 0
*RES
1 a[5] *565:A 11.76 
*END

*D_NET *31 0.000847493
*CONN
*P a[6] I
*I *566:A I *D sky130_fd_sc_hd__clkbuf_1
*CAP
1 a[6] 0.000423747
2 *566:A 0.000423747
3 *566:A *571:A 0
4 *566:A *602:A 0
5 *566:A *603:A 0
6 *548:A *566:A 0
*RES
1 a[6] *566:A 10.965 
*END

*D_NET *32 0.00133085
*CONN
*P a[7] I
*I *568:A I *D sky130_fd_sc_hd__clkbuf_1
*CAP
1 a[7] 0.000589055
2 *568:A 0.000589055
3 *568:A *489:A_N 8.95547e-06
4 *568:A *489:B 9.65682e-05
5 *568:A *603:A 4.35648e-05
6 *568:A *241:8 3.64998e-06
7 *608:A *568:A 0
*RES
1 a[7] *568:A 13.35 
*END

*D_NET *33 0.00268187
*CONN
*P a[8] I
*I *569:A I *D sky130_fd_sc_hd__clkbuf_1
*CAP
1 a[8] 0.000837917
2 *569:A 0.000837917
3 *569:A *445:A 8.23457e-05
4 *569:A *515:A_N 0
5 *569:A *516:D 4.93897e-05
6 *569:A *518:B1 0
7 *569:A *573:A 0.000148424
8 *569:A *574:A 0.000231106
9 *569:A *585:A 0.000162263
10 *569:A *604:A 5.63302e-05
11 *569:A *117:12 6.76589e-05
12 *569:A *164:14 9.14049e-05
13 *569:A *212:18 1.48096e-05
14 *569:A *242:12 3.64998e-06
15 *567:A *569:A 0
16 *578:A *569:A 9.86572e-05
*RES
1 a[8] *569:A 13.024 
*END

*D_NET *34 0.000397518
*CONN
*P a[9] I
*I *570:A I *D sky130_fd_sc_hd__clkbuf_1
*CAP
1 a[9] 0.000162995
2 *570:A 0.000162995
3 *570:A *443:A 0
4 *570:A *575:A 3.45358e-05
5 *570:A *605:A 3.6993e-05
6 *556:A *570:A 0
*RES
1 a[9] *570:A 6.04043 
*END

*D_NET *35 0.00414301
*CONN
*P b[0] I
*I *571:A I *D sky130_fd_sc_hd__clkbuf_1
*CAP
1 b[0] 0.00156228
2 *571:A 0.00156228
3 *571:A *493:B 0
4 *571:A *577:A 0.000203013
5 *571:A *583:A 0.000393654
6 *571:A *602:A 0.000121877
7 *571:A *99:12 2.87867e-05
8 *571:A *186:14 8.97564e-05
9 *571:A *204:14 7.4027e-05
10 *571:A *215:10 4.99619e-05
11 *571:A *221:10 5.73739e-05
12 *563:A *571:A 0
13 *566:A *571:A 0
*RES
1 b[0] *571:A 22.7682 
*END

*D_NET *36 0.00174989
*CONN
*P b[10] I
*I *572:A I *D sky130_fd_sc_hd__clkbuf_1
*CAP
1 b[10] 0.00061206
2 *572:A 0.00061206
3 *572:A *515:A_N 7.09512e-05
4 *572:A *515:B 0.000206802
5 *572:A *516:D 0
6 *572:A *531:B1 0
7 *572:A *585:A 0
8 *572:A *118:10 0.000124007
9 *572:A *164:14 0.000124007
10 *567:A *572:A 0
*RES
1 b[10] *572:A 14.475 
*END

*D_NET *37 0.00175471
*CONN
*P b[11] I
*I *573:A I *D sky130_fd_sc_hd__clkbuf_1
*CAP
1 b[11] 0.000486008
2 *573:A 0.000486008
3 *573:A *511:A_N 5.4155e-06
4 *573:A *514:A_N 6.27029e-05
5 *573:A *117:12 8.40269e-05
6 *573:A *205:8 2.8585e-06
7 *573:A *211:12 8.19495e-05
8 *550:A *573:A 0
9 *567:A *573:A 1.84044e-05
10 *569:A *573:A 0.000148424
11 *578:A *573:A 0.000378913
*RES
1 b[11] *573:A 14.82 
*END

*D_NET *38 0.00261569
*CONN
*P b[12] I
*I *574:A I *D sky130_fd_sc_hd__buf_1
*CAP
1 b[12] 0.000803577
2 *574:A 0.000803577
3 *574:A *438:A 4.91189e-05
4 *574:A *476:B2 0
5 *574:A *582:A 0
6 *574:A *585:A 0
7 *574:A *120:12 9.62764e-05
8 *574:A *188:12 3.58189e-05
9 *550:A *574:A 0.000151039
10 *569:A *574:A 0.000231106
11 *578:A *574:A 0.000445173
*RES
1 b[12] *574:A 15.0704 
*END

*D_NET *39 0.000518815
*CONN
*P b[13] I
*I *575:A I *D sky130_fd_sc_hd__buf_1
*CAP
1 b[13] 0.000224872
2 *575:A 0.000224872
3 *575:A *213:8 0
4 *570:A *575:A 3.45358e-05
5 *589:A *575:A 3.45358e-05
*RES
1 b[13] *575:A 6.91043 
*END

*D_NET *40 0.00050878
*CONN
*P b[14] I
*I *576:A I *D sky130_fd_sc_hd__clkbuf_1
*CAP
1 b[14] 0.000137026
2 *576:A 0.000137026
3 *576:A *238:10 0
4 *545:A *576:A 0.000163199
5 *600:A *576:A 3.45358e-05
6 *606:A *576:A 3.6993e-05
*RES
1 b[14] *576:A 6.04043 
*END

*D_NET *41 0.00362258
*CONN
*P b[15] I
*I *577:A I *D sky130_fd_sc_hd__clkbuf_1
*CAP
1 b[15] 0.00168221
2 *577:A 0.00168221
3 *577:A *527:A1 0
4 *577:A *527:A4 1.88602e-05
5 *577:A *583:A 0
6 *577:A *201:14 0
7 *577:A *221:10 0
8 *545:A *577:A 2.48672e-05
9 *548:A *577:A 1.14255e-05
10 *571:A *577:A 0.000203013
*RES
1 b[15] *577:A 10.9194 
*END

*D_NET *42 0.00101932
*CONN
*P b[16] I
*I *579:A I *D sky130_fd_sc_hd__clkbuf_1
*CAP
1 b[16] 0.000331755
2 *579:A 0.000331755
3 *579:A *456:B 2.97561e-05
4 *579:A *580:A 0.000155439
5 *579:A *235:10 0
6 *579:A *235:14 4.17687e-05
7 *607:A *579:A 0.000128846
*RES
1 b[16] *579:A 6.98137 
*END

*D_NET *43 0.00105482
*CONN
*P b[17] I
*I *580:A I *D sky130_fd_sc_hd__clkbuf_1
*CAP
1 b[17] 0.00025821
2 *580:A 0.00025821
3 *580:A *456:B 0.000108262
4 *580:A *593:A 0.00015618
5 *580:A *231:10 0.00011852
6 *580:A *235:10 0
7 *579:A *580:A 0.000155439
*RES
1 b[17] *580:A 7.82657 
*END

*D_NET *44 0.000458133
*CONN
*P b[18] I
*I *581:A I *D sky130_fd_sc_hd__clkbuf_1
*CAP
1 b[18] 0.000191178
2 *581:A 0.000191178
3 *581:A *439:A 5.4155e-06
4 *581:A *113:16 0
5 *546:A *581:A 3.45358e-05
6 *547:A *581:A 3.58251e-05
*RES
1 b[18] *581:A 6.40043 
*END

*D_NET *45 0.00353515
*CONN
*P b[19] I
*I *582:A I *D sky130_fd_sc_hd__buf_1
*CAP
1 b[19] 0.00141777
2 *582:A 0.00141777
3 *582:A *436:A 0.000121817
4 *582:A *544:CLK 8.30306e-05
5 *582:A *584:A 0.000240227
6 *574:A *582:A 0
7 *578:A *582:A 0.000254537
*RES
1 b[19] *582:A 17.6122 
*END

*D_NET *46 0.00317021
*CONN
*P b[1] I
*I *583:A I *D sky130_fd_sc_hd__clkbuf_1
*CAP
1 b[1] 0.00105542
2 *583:A 0.00105542
3 *583:A *492:A_N 0
4 *583:A *493:B 0.000222813
5 *583:A *497:A_N 6.47594e-05
6 *583:A *525:B1 0
7 *583:A *527:A1 2.7881e-05
8 *583:A *602:A 2.37037e-05
9 *583:A *98:8 7.25605e-05
10 *583:A *186:14 0
11 *583:A *240:14 4.05358e-05
12 *548:A *583:A 0.000213462
13 *560:A *583:A 0
14 *571:A *583:A 0.000393654
15 *577:A *583:A 0
*RES
1 b[1] *583:A 15.0086 
*END

*D_NET *47 0.000825802
*CONN
*P b[20] I
*I *584:A I *D sky130_fd_sc_hd__clkbuf_1
*CAP
1 b[20] 0.000292788
2 *584:A 0.000292788
3 *549:A *584:A 0
4 *582:A *584:A 0.000240227
*RES
1 b[20] *584:A 10.35 
*END

*D_NET *48 0.00525096
*CONN
*P b[21] I
*I *585:A I *D sky130_fd_sc_hd__clkbuf_1
*CAP
1 b[21] 0.00218687
2 *585:A 0.00218687
3 *585:A *438:A 0.000602248
4 *585:A *443:A 0
5 *585:A *472:B 2.22315e-05
6 *585:A *515:B 0
7 *585:A *534:A2 0
8 *585:A *540:B2 2.37037e-05
9 *585:A *604:A 9.02422e-06
10 *585:A *225:12 5.77533e-05
11 *556:A *585:A 0
12 *569:A *585:A 0.000162263
13 *572:A *585:A 0
14 *574:A *585:A 0
*RES
1 b[21] *585:A 17.7081 
*END

*D_NET *49 0.000771241
*CONN
*P b[22] I
*I *586:A I *D sky130_fd_sc_hd__clkbuf_1
*CAP
1 b[22] 0.00038562
2 *586:A 0.00038562
3 *586:A *588:A 0
4 *552:A *586:A 0
5 *555:A *586:A 0
*RES
1 b[22] *586:A 10.35 
*END

*D_NET *50 0.000863091
*CONN
*P b[23] I
*I *587:A I *D sky130_fd_sc_hd__clkbuf_1
*CAP
1 b[23] 0.000431545
2 *587:A 0.000431545
3 *587:A *475:D 0
4 *587:A *544:CLK 0
5 *552:A *587:A 0
*RES
1 b[23] *587:A 10.695 
*END

*D_NET *51 0.000933967
*CONN
*P b[24] I
*I *588:A I *D sky130_fd_sc_hd__clkbuf_1
*CAP
1 b[24] 0.000400681
2 *588:A 0.000400681
3 *588:A *466:B1 8.7373e-06
4 *588:A *467:B 2.8185e-05
5 *588:A *192:12 3.05373e-05
6 *588:A *226:6 7.00889e-06
7 *554:A *588:A 0
8 *555:A *588:A 5.8136e-05
9 *586:A *588:A 0
*RES
1 b[24] *588:A 11.145 
*END

*D_NET *52 0.00270536
*CONN
*P b[25] I
*I *590:A I *D sky130_fd_sc_hd__clkbuf_1
*CAP
1 b[25] 0.0011711
2 *590:A 0.0011711
3 *590:A *458:A_N 4.99619e-05
4 *590:A *460:A 0.000160635
5 *590:A *462:A2 0.000132887
6 *590:A *70:12 3.64998e-06
7 *590:A *177:8 1.60203e-05
8 *590:A *229:8 0
9 *551:A *590:A 0
10 *553:A *590:A 0
*RES
1 b[25] *590:A 24.795 
*END

*D_NET *53 0.000686215
*CONN
*P b[26] I
*I *591:A I *D sky130_fd_sc_hd__clkbuf_1
*CAP
1 b[26] 0.000186588
2 *591:A 0.000186588
3 *591:A z 7.24996e-05
4 *591:A *435:A 0
5 *591:A *229:8 3.12569e-05
6 *553:A *591:A 0.000129898
7 *554:A *591:A 0
8 *555:A *591:A 7.93843e-05
*RES
1 b[26] *591:A 6.12177 
*END

*D_NET *54 0.000539256
*CONN
*P b[27] I
*I *592:A I *D sky130_fd_sc_hd__clkbuf_1
*CAP
1 b[27] 0.000168431
2 *592:A 0.000168431
3 *592:A z 0
4 *592:A *458:A_N 3.58034e-05
5 *592:A *597:A 7.98965e-05
6 *557:A *592:A 8.6694e-05
*RES
1 b[27] *592:A 5.61177 
*END

*D_NET *55 0.00114237
*CONN
*P b[28] I
*I *593:A I *D sky130_fd_sc_hd__clkbuf_1
*CAP
1 b[28] 0.000439416
2 *593:A 0.000439416
3 *593:A *456:B 0
4 *593:A *596:A 4.18273e-05
5 *593:A *231:10 6.55328e-05
6 *580:A *593:A 0.00015618
*RES
1 b[28] *593:A 9.8539 
*END

*D_NET *56 0.00395617
*CONN
*P b[29] I
*I *594:A I *D sky130_fd_sc_hd__clkbuf_1
*CAP
1 b[29] 0.00157942
2 *594:A 0.00157942
3 *594:A *430:A 0
4 *594:A *521:B1_N 7.27003e-05
5 *594:A *523:A 8.72222e-05
6 *594:A *528:C 3.63701e-06
7 *594:A *529:A3 0.000280641
8 *594:A *596:A 8.28724e-05
9 *594:A *95:10 2.91577e-05
10 *594:A *232:30 0.000204112
11 *559:A *594:A 0
12 *561:A *594:A 3.6993e-05
*RES
1 b[29] *594:A 17.2196 
*END

*D_NET *57 0.00198617
*CONN
*P b[2] I
*I *595:A I *D sky130_fd_sc_hd__buf_1
*CAP
1 b[2] 0.000704598
2 *595:A 0.000704598
3 *595:A *448:A 0
4 *595:A *495:B 0.000361984
5 *595:A *496:A_N 4.35778e-05
6 *595:A *496:B 2.73374e-05
7 *595:A *526:A1 0.000100635
8 *595:A *526:A2 3.76075e-05
9 *595:A *598:A 0
10 *595:A *238:10 5.83121e-06
11 *563:A *595:A 0
*RES
1 b[2] *595:A 17.595 
*END

*D_NET *58 0.000618716
*CONN
*P b[30] I
*I *596:A I *D sky130_fd_sc_hd__clkbuf_1
*CAP
1 b[30] 0.000218089
2 *596:A 0.000218089
3 *596:A *456:B 0
4 *596:A *234:10 5.78379e-05
5 *593:A *596:A 4.18273e-05
6 *594:A *596:A 8.28724e-05
*RES
1 b[30] *596:A 6.37677 
*END

*D_NET *59 0.000486675
*CONN
*P b[31] I
*I *597:A I *D sky130_fd_sc_hd__buf_1
*CAP
1 b[31] 0.000192144
2 *597:A 0.000192144
3 *592:A *597:A 7.98965e-05
4 *607:A *597:A 2.24901e-05
*RES
1 b[31] *597:A 5.35677 
*END

*D_NET *60 0.00108862
*CONN
*P b[3] I
*I *598:A I *D sky130_fd_sc_hd__clkbuf_1
*CAP
1 b[3] 0.000498783
2 *598:A 0.000498783
3 *598:A *492:A_N 8.53113e-06
4 *598:A *236:8 2.30292e-05
5 *560:A *598:A 5.94962e-05
6 *595:A *598:A 0
*RES
1 b[3] *598:A 12.105 
*END

*D_NET *61 0.000959288
*CONN
*P b[4] I
*I *599:A I *D sky130_fd_sc_hd__clkbuf_1
*CAP
1 b[4] 0.00046909
2 *599:A 0.00046909
3 *599:A *237:18 2.11084e-05
4 *562:A *599:A 0
5 *565:A *599:A 0
6 *608:A *599:A 0
*RES
1 b[4] *599:A 11.655 
*END

*D_NET *62 0.000879718
*CONN
*P b[5] I
*I *601:A I *D sky130_fd_sc_hd__clkbuf_1
*CAP
1 b[5] 0.000429387
2 *601:A 0.000429387
3 *559:A *601:A 2.09442e-05
4 *564:A *601:A 0
5 *565:A *601:A 0
*RES
1 b[5] *601:A 10.965 
*END

*D_NET *63 0.00100266
*CONN
*P b[6] I
*I *602:A I *D sky130_fd_sc_hd__clkbuf_1
*CAP
1 b[6] 0.000389048
2 *602:A 0.000389048
3 *602:A *492:B 0
4 *548:A *602:A 7.89884e-05
5 *560:A *602:A 0
6 *566:A *602:A 0
7 *571:A *602:A 0.000121877
8 *583:A *602:A 2.37037e-05
*RES
1 b[6] *602:A 11.655 
*END

*D_NET *64 0.00100027
*CONN
*P b[7] I
*I *603:A I *D sky130_fd_sc_hd__clkbuf_1
*CAP
1 b[7] 0.000472481
2 *603:A 0.000472481
3 *603:A *241:8 1.17409e-05
4 *566:A *603:A 0
5 *568:A *603:A 4.35648e-05
*RES
1 b[7] *603:A 11.76 
*END

*D_NET *65 0.000985839
*CONN
*P b[8] I
*I *604:A I *D sky130_fd_sc_hd__buf_1
*CAP
1 b[8] 0.000363069
2 *604:A 0.000363069
3 *604:A *515:B 0
4 *604:A *605:A 0.000125259
5 *604:A *194:10 0
6 *556:A *604:A 6.90876e-05
7 *569:A *604:A 5.63302e-05
8 *585:A *604:A 9.02422e-06
*RES
1 b[8] *604:A 9.26197 
*END

*D_NET *66 0.000601211
*CONN
*P b[9] I
*I *605:A I *D sky130_fd_sc_hd__buf_1
*CAP
1 b[9] 0.00013788
2 *605:A 0.00013788
3 *556:A *605:A 0.000163199
4 *570:A *605:A 3.6993e-05
5 *604:A *605:A 0.000125259
*RES
1 b[9] *605:A 6.04043 
*END

*D_NET *67 0.0026433
*CONN
*P clk I
*I *544:CLK I *D sky130_fd_sc_hd__dfxtp_1
*CAP
1 clk 0.000873383
2 *544:CLK 0.000873383
3 *544:CLK *437:A 6.20597e-05
4 *544:CLK *438:A 2.05571e-05
5 *544:CLK *478:C 0
6 *544:CLK *540:A2 0
7 *544:CLK *544:D 0.000128647
8 *544:CLK *79:14 9.30717e-05
9 *544:CLK *81:20 0.000190609
10 *544:CLK *84:14 0.000275325
11 *544:CLK *156:12 2.03321e-05
12 *544:CLK *225:12 2.29006e-05
13 *582:A *544:CLK 8.30306e-05
14 *587:A *544:CLK 0
*RES
1 clk *544:CLK 21.135 
*END

*D_NET *68 0.00073894
*CONN
*P z O
*I *609:X O *D sky130_fd_sc_hd__buf_2
*CAP
1 z 0.000226578
2 *609:X 0.000226578
3 z *229:8 0.000104457
4 *553:A z 5.54727e-05
5 *555:A z 0
6 *557:A z 5.33544e-05
7 *591:A z 7.24996e-05
8 *592:A z 0
*RES
1 *609:X z 5.92503 
*END

*D_NET *69 0.000692082
*CONN
*I *544:D I *D sky130_fd_sc_hd__dfxtp_1