*SPEF "ieee 1481-1999"
*DESIGN "comp32"
*DATE "09:55:01 Tuesday April 30, 2024"
*VENDOR "The OpenROAD Project"
*PROGRAM "OpenROAD"
*VERSION "0889970d1790a2617e69f253221b8bd7626e51dc"
*DESIGN_FLOW "NAME_SCOPE LOCAL" "PIN_CAP NONE"
*DIVIDER /
*DELIMITER :
*BUS_DELIMITER []
*T_UNIT 1 NS
*C_UNIT 1 PF
*R_UNIT 1 OHM
*L_UNIT 1 HENRY

*NAME_MAP
*3 a[0]
*4 a[10]
*5 a[11]
*6 a[12]
*7 a[13]
*8 a[14]
*9 a[15]
*10 a[16]
*11 a[17]
*12 a[18]
*13 a[19]
*14 a[1]
*15 a[20]
*16 a[21]
*17 a[22]
*18 a[23]
*19 a[24]
*20 a[25]
*21 a[26]
*22 a[27]
*23 a[28]
*24 a[29]
*25 a[2]
*26 a[30]
*27 a[31]
*28 a[3]
*29 a[4]
*30 a[5]
*31 a[6]
*32 a[7]
*33 a[8]
*34 a[9]
*35 b[0]
*36 b[10]
*37 b[11]
*38 b[12]
*39 b[13]
*40 b[14]
*41 b[15]
*42 b[16]
*43 b[17]
*44 b[18]
*45 b[19]
*46 b[1]
*47 b[20]
*48 b[21]
*49 b[22]
*50 b[23]
*51 b[24]
*52 b[25]
*53 b[26]
*54 b[27]
*55 b[28]
*56 b[29]
*57 b[2]
*58 b[30]
*59 b[31]
*60 b[3]
*61 b[4]
*62 b[5]
*63 b[6]
*64 b[7]
*65 b[8]
*66 b[9]
*67 clk
*68 z
*69 _000_
*70 _001_
*71 _002_
*72 _003_
*73 _004_
*74 _005_
*75 _006_
*76 _007_
*77 _008_
*78 _009_
*79 _010_
*80 _011_
*81 _012_
*82 _013_
*83 _014_
*84 _015_
*85 _016_
*86 _017_
*87 _018_
*88 _019_
*89 _020_
*90 _021_
*91 _022_
*92 _023_
*93 _024_
*94 _025_
*95 _026_
*96 _027_
*97 _028_
*98 _029_
*99 _030_
*100 _031_
*101 _032_
*102 _033_
*103 _034_
*104 _035_
*105 _036_
*106 _037_
*107 _038_
*108 _039_
*109 _040_
*110 _041_
*111 _042_
*112 _043_
*113 _044_
*114 _045_
*115 _046_
*116 _047_
*117 _048_
*118 _049_
*119 _050_
*120 _051_
*121 _052_
*122 _053_
*123 _054_
*124 _055_
*125 _056_
*126 _057_
*127 _058_
*128 _059_
*129 _060_
*130 _061_
*131 _062_
*132 _063_
*133 _064_
*134 _065_
*135 _066_
*136 _067_
*137 _068_
*138 _069_
*139 _070_
*140 _071_
*141 _072_
*142 _073_
*143 _074_
*144 _075_
*145 _076_
*146 _077_
*147 _078_
*148 _079_
*149 _080_
*150 _081_
*151 _082_
*152 _083_
*153 _084_
*154 _085_
*155 _086_
*156 _087_
*157 _088_
*158 _089_
*159 _090_
*160 _091_
*161 _092_
*162 _093_
*163 _094_
*164 _095_
*165 _096_
*166 _097_
*167 _098_
*168 _099_
*169 _100_
*170 _101_
*171 _102_
*172 _103_
*173 _104_
*174 _105_
*175 _106_
*176 _107_
*177 _108_
*178 _109_
*179 _110_
*180 _111_
*181 _112_
*182 _113_
*183 net1
*184 net10
*185 net11
*186 net12
*187 net13
*188 net14
*189 net15
*190 net16
*191 net17
*192 net18
*193 net19
*194 net2
*195 net20
*196 net21
*197 net22
*198 net23
*199 net24
*200 net25
*201 net26
*202 net27
*203 net28
*204 net29
*205 net3
*206 net30
*207 net31
*208 net32
*209 net33
*210 net34
*211 net35
*212 net36
*213 net37
*214 net38
*215 net39
*216 net4
*217 net40
*218 net41
*219 net42
*220 net43
*221 net44
*222 net45
*223 net46
*224 net47
*225 net48
*226 net49
*227 net5
*228 net50
*229 net51
*230 net52
*231 net53
*232 net54
*233 net55
*234 net56
*235 net57
*236 net58
*237 net59
*238 net6
*239 net60
*240 net61
*241 net62
*242 net63
*243 net64
*244 net65
*245 net7
*246 net8
*247 net9
*248 FILLER_0_0_20
*249 FILLER_0_0_35
*250 FILLER_0_0_57
*251 FILLER_0_0_6
*252 FILLER_0_0_90
*253 FILLER_0_10_26
*254 FILLER_0_10_29
*255 FILLER_0_10_41
*256 FILLER_0_10_53
*257 FILLER_0_10_65
*258 FILLER_0_10_83
*259 FILLER_0_11_22
*260 FILLER_0_11_34
*261 FILLER_0_11_46
*262 FILLER_0_11_54
*263 FILLER_0_11_57
*264 FILLER_0_11_6
*265 FILLER_0_11_69
*266 FILLER_0_11_77
*267 FILLER_0_12_17
*268 FILLER_0_12_25
*269 FILLER_0_12_29
*270 FILLER_0_12_3
*271 FILLER_0_12_41
*272 FILLER_0_12_53
*273 FILLER_0_12_65
*274 FILLER_0_12_71
*275 FILLER_0_12_85
*276 FILLER_0_13_20
*277 FILLER_0_13_29
*278 FILLER_0_13_3
*279 FILLER_0_13_33
*280 FILLER_0_13_52
*281 FILLER_0_13_57
*282 FILLER_0_13_63
*283 FILLER_0_13_79
*284 FILLER_0_13_88
*285 FILLER_0_14_3
*286 FILLER_0_14_36
*287 FILLER_0_14_63
*288 FILLER_0_14_76
*289 FILLER_0_14_91
*290 FILLER_0_15_16
*291 FILLER_0_15_26
*292 FILLER_0_15_29
*293 FILLER_0_15_37
*294 FILLER_0_15_41
*295 FILLER_0_15_55
*296 FILLER_0_15_57
*297 FILLER_0_15_62
*298 FILLER_0_15_9
*299 FILLER_0_15_90
*300 FILLER_0_1_47
*301 FILLER_0_1_64
*302 FILLER_0_1_7
*303 FILLER_0_1_79
*304 FILLER_0_1_91
*305 FILLER_0_2_23
*306 FILLER_0_2_27
*307 FILLER_0_2_29
*308 FILLER_0_2_3
*309 FILLER_0_2_49
*310 FILLER_0_2_61
*311 FILLER_0_2_79
*312 FILLER_0_2_85
*313 FILLER_0_3_25
*314 FILLER_0_3_3
*315 FILLER_0_3_37
*316 FILLER_0_3_49
*317 FILLER_0_3_55
*318 FILLER_0_3_57
*319 FILLER_0_3_69
*320 FILLER_0_3_88
*321 FILLER_0_4_22
*322 FILLER_0_4_29
*323 FILLER_0_4_53
*324 FILLER_0_4_65
*325 FILLER_0_4_82
*326 FILLER_0_4_88
*327 FILLER_0_5_13
*328 FILLER_0_5_17
*329 FILLER_0_5_21
*330 FILLER_0_5_3
*331 FILLER_0_5_33
*332 FILLER_0_5_49
*333 FILLER_0_5_55
*334 FILLER_0_5_57
*335 FILLER_0_5_74
*336 FILLER_0_5_78
*337 FILLER_0_5_88
*338 FILLER_0_6_14
*339 FILLER_0_6_23
*340 FILLER_0_6_27
*341 FILLER_0_6_29
*342 FILLER_0_6_41
*343 FILLER_0_6_49
*344 FILLER_0_6_55
*345 FILLER_0_6_6
*346 FILLER_0_6_72
*347 FILLER_0_7_18
*348 FILLER_0_7_30
*349 FILLER_0_7_6
*350 FILLER_0_7_69
*351 FILLER_0_7_75
*352 FILLER_0_7_88
*353 FILLER_0_8_15
*354 FILLER_0_8_21
*355 FILLER_0_8_25
*356 FILLER_0_8_3
*357 FILLER_0_8_41
*358 FILLER_0_8_53
*359 FILLER_0_8_57
*360 FILLER_0_8_63
*361 FILLER_0_8_68
*362 FILLER_0_8_80
*363 FILLER_0_8_85
*364 FILLER_0_9_12
*365 FILLER_0_9_16
*366 FILLER_0_9_24
*367 FILLER_0_9_35
*368 FILLER_0_9_47
*369 FILLER_0_9_55
*370 FILLER_0_9_57
*371 FILLER_0_9_69
*372 FILLER_0_9_77
*373 PHY_EDGE_ROW_0_Left_16
*374 PHY_EDGE_ROW_0_Right_0
*375 PHY_EDGE_ROW_10_Left_26
*376 PHY_EDGE_ROW_10_Right_10
*377 PHY_EDGE_ROW_11_Left_27
*378 PHY_EDGE_ROW_11_Right_11
*379 PHY_EDGE_ROW_12_Left_28
*380 PHY_EDGE_ROW_12_Right_12
*381 PHY_EDGE_ROW_13_Left_29
*382 PHY_EDGE_ROW_13_Right_13
*383 PHY_EDGE_ROW_14_Left_30
*384 PHY_EDGE_ROW_14_Right_14
*385 PHY_EDGE_ROW_15_Left_31
*386 PHY_EDGE_ROW_15_Right_15
*387 PHY_EDGE_ROW_1_Left_17
*388 PHY_EDGE_ROW_1_Right_1
*389 PHY_EDGE_ROW_2_Left_18
*390 PHY_EDGE_ROW_2_Right_2
*391 PHY_EDGE_ROW_3_Left_19
*392 PHY_EDGE_ROW_3_Right_3
*393 PHY_EDGE_ROW_4_Left_20
*394 PHY_EDGE_ROW_4_Right_4
*395 PHY_EDGE_ROW_5_Left_21
*396 PHY_EDGE_ROW_5_Right_5
*397 PHY_EDGE_ROW_6_Left_22
*398 PHY_EDGE_ROW_6_Right_6
*399 PHY_EDGE_ROW_7_Left_23
*400 PHY_EDGE_ROW_7_Right_7
*401 PHY_EDGE_ROW_8_Left_24
*402 PHY_EDGE_ROW_8_Right_8
*403 PHY_EDGE_ROW_9_Left_25
*404 PHY_EDGE_ROW_9_Right_9
*405 TAP_TAPCELL_ROW_0_32
*406 TAP_TAPCELL_ROW_0_33
*407 TAP_TAPCELL_ROW_0_34
*408 TAP_TAPCELL_ROW_10_48
*409 TAP_TAPCELL_ROW_10_49
*410 TAP_TAPCELL_ROW_11_50
*411 TAP_TAPCELL_ROW_12_51
*412 TAP_TAPCELL_ROW_12_52
*413 TAP_TAPCELL_ROW_13_53
*414 TAP_TAPCELL_ROW_14_54
*415 TAP_TAPCELL_ROW_14_55
*416 TAP_TAPCELL_ROW_15_56
*417 TAP_TAPCELL_ROW_15_57
*418 TAP_TAPCELL_ROW_15_58
*419 TAP_TAPCELL_ROW_1_35
*420 TAP_TAPCELL_ROW_2_36
*421 TAP_TAPCELL_ROW_2_37
*422 TAP_TAPCELL_ROW_3_38
*423 TAP_TAPCELL_ROW_4_39
*424 TAP_TAPCELL_ROW_4_40
*425 TAP_TAPCELL_ROW_5_41
*426 TAP_TAPCELL_ROW_6_42
*427 TAP_TAPCELL_ROW_6_43
*428 TAP_TAPCELL_ROW_7_44
*429 TAP_TAPCELL_ROW_8_45
*430 TAP_TAPCELL_ROW_8_46
*431 TAP_TAPCELL_ROW_9_47
*432 _114_
*433 _115_
*434 _116_
*435 _117_
*436 _118_
*437 _119_
*438 _120_
*439 _121_
*440 _122_
*441 _123_
*442 _124_
*443 _125_
*444 _126_
*445 _127_
*446 _128_
*447 _129_
*448 _130_
*449 _131_
*450 _132_
*451 _133_
*452 _134_
*453 _135_
*454 _136_
*455 _137_
*456 _138_
*457 _139_
*458 _140_
*459 _141_
*460 _142_
*461 _143_
*462 _144_
*463 _145_
*464 _146_
*465 _147_
*466 _148_
*467 _149_
*468 _150_
*469 _151_
*470 _152_
*471 _153_
*472 _154_
*473 _155_
*474 _156_
*475 _157_
*476 _158_
*477 _159_
*478 _160_
*479 _161_
*480 _162_
*481 _163_
*482 _164_
*483 _165_
*484 _166_
*485 _167_
*486 _168_
*487 _169_
*488 _170_
*489 _171_
*490 _172_
*491 _173_
*492 _174_
*493 _175_
*494 _176_
*495 _177_
*496 _178_
*497 _179_
*498 _180_
*499 _181_
*500 _182_
*501 _183_
*502 _184_
*503 _185_
*504 _186_
*505 _187_
*506 _188_
*507 _189_
*508 _190_
*509 _191_
*510 _192_
*511 _193_
*512 _194_
*513 _195_
*514 _196_
*515 _197_
*516 _198_
*517 _199_
*518 _200_
*519 _201_
*520 _202_
*521 _203_
*522 _204_
*523 _205_
*524 _206_
*525 _207_
*526 _208_
*527 _209_
*528 _210_
*529 _211_
*530 _212_
*531 _213_
*532 _214_
*533 _215_
*534 _216_
*535 _217_
*536 _218_
*537 _219_
*538 _220_
*539 _221_
*540 _222_
*541 _223_
*542 _224_
*543 _225_
*544 _226_
*545 _227_
*546 _228_
*547 input1
*548 input10
*549 input11
*550 input12
*551 input13
*552 input14
*553 input15
*554 input16
*555 input17
*556 input18
*557 input19
*558 input2
*559 input20
*560 input21
*561 input22
*562 input23
*563 input24
*564 input25
*565 input26
*566 input27
*567 input28
*568 input29
*569 input3
*570 input30
*571 input31
*572 input32
*573 input33
*574 input34
*575 input35
*576 input36
*577 input37
*578 input38
*579 input39
*580 input4
*581 input40
*582 input41
*583 input42
*584 input43
*585 input44
*586 input45
*587 input46
*588 input47
*589 input48
*590 input49
*591 input5
*592 input50
*593 input51
*594 input52
*595 input53
*596 input54
*597 input55
*598 input56
*599 input57
*600 input58
*601 input59
*602 input6
*603 input60
*604 input61
*605 input62
*606 input63
*607 input64
*608 input7
*609 input8
*610 input9
*611 output65

*PORTS
a[0] I
a[10] I
a[11] I
a[12] I
a[13] I
a[14] I
a[15] I
a[16] I
a[17] I
a[18] I
a[19] I
a[1] I
a[20] I
a[21] I
a[22] I
a[23] I
a[24] I
a[25] I
a[26] I
a[27] I
a[28] I
a[29] I
a[2] I
a[30] I
a[31] I
a[3] I
a[4] I
a[5] I
a[6] I
a[7] I
a[8] I
a[9] I
b[0] I
b[10] I
b[11] I
b[12] I
b[13] I
b[14] I
b[15] I
b[16] I
b[17] I
b[18] I
b[19] I
b[1] I
b[20] I
b[21] I
b[22] I
b[23] I
b[24] I
b[25] I
b[26] I
b[27] I
b[28] I
b[29] I
b[2] I
b[30] I
b[31] I
b[3] I
b[4] I
b[5] I
b[6] I
b[7] I
b[8] I
b[9] I
clk I
z O

*D_NET *3 0.00298626
*CONN
*P a[0] I
*I *547:A I *D sky130_fd_sc_hd__clkbuf_1
*CAP
1 a[0] 0.00104357
2 *547:A 0
3 *3:17 0.00104357
4 *3:17 *578:A 0.000185428
5 *3:17 *602:A 2.11157e-05
6 *3:17 *28:13 0.000669132
7 *3:17 *41:19 2.34406e-05
*RES
1 a[0] *3:17 48.5866 
2 *3:17 *547:A 23 
*END

*D_NET *4 0.0027472
*CONN
*P a[10] I
*I *558:A I *D sky130_fd_sc_hd__clkbuf_1
*CAP
1 a[10] 0.00105641
2 *558:A 0
3 *4:11 0.00105641
4 *4:11 *520:B1 0
5 *4:11 *572:A 0
6 *4:11 *607:A 0.000185428
7 *4:11 *48:21 0
8 *4:11 *65:17 7.42621e-05
9 *4:11 *194:10 7.24365e-05
10 *4:11 *242:6 0.000228001
11 *4:11 *243:8 7.42621e-05
*RES
1 a[10] *4:11 39.3807 
2 *4:11 *558:A 23 
*END

*D_NET *5 0.00123943
*CONN
*P a[11] I
*I *569:A I *D sky130_fd_sc_hd__clkbuf_1
*CAP
1 a[11] 0.000546182
2 *569:A 0.000546182
3 *569:A *513:A_N 0
4 *569:A *33:19 0
5 *569:A *36:11 0
6 *569:A *37:19 1.79457e-05
7 *569:A *121:16 3.06338e-05
8 *569:A *205:8 9.84851e-05
*RES
1 a[11] *569:A 48.8957 
*END

*D_NET *6 0.00394963
*CONN
*P a[12] I
*I *580:A I *D sky130_fd_sc_hd__clkbuf_1
*CAP
1 a[12] 0.00115321
2 *580:A 0
3 *6:19 0.00115321
4 *6:19 *552:A 0
5 *6:19 *33:19 0.000105074
6 *6:19 *37:19 0.00042824
7 *6:19 *38:17 0.000432424
8 *6:19 *45:15 0.000240454
9 *6:19 *117:10 0.000106747
10 *6:19 *120:10 8.80385e-05
11 *6:19 *164:14 0.000137788
12 *6:19 *164:23 2.55642e-05
13 *6:19 *212:10 7.88828e-05
14 *6:19 *220:28 0
*RES
1 a[12] *6:19 44.1365 
2 *6:19 *580:A 23 
*END

*D_NET *7 0.000632444
*CONN
*P a[13] I
*I *591:A I *D sky130_fd_sc_hd__clkbuf_1
*CAP
1 a[13] 0.000283648
2 *591:A 0
3 *7:15 0.000283648
4 *7:15 *444:A 0
5 *7:15 *549:A 3.25743e-05
6 *7:15 *577:A 3.25743e-05
7 *7:15 *115:12 0
8 *7:15 *213:23 0
*RES
1 a[13] *7:15 27.2539 
2 *7:15 *591:A 23 
*END

*D_NET *8 0.000527162
*CONN
*P a[14] I
*I *602:A I *D sky130_fd_sc_hd__clkbuf_1
*CAP
1 a[14] 0.000216394
2 *602:A 0.000216394
3 *602:A *578:A 3.25743e-05
4 *602:A *14:17 2.96955e-05
5 *602:A *28:13 1.09886e-05
6 *3:17 *602:A 2.11157e-05
*RES
1 a[14] *602:A 48.7003 
*END

*D_NET *9 0.000566889
*CONN
*P a[15] I
*I *608:A I *D sky130_fd_sc_hd__clkbuf_1
*CAP
1 a[15] 0.000249684
2 *608:A 0.000249684
3 *608:A *505:B 0
4 *608:A *548:A 3.25743e-05
5 *608:A *578:A 3.49463e-05
6 *608:A *245:8 0
*RES
1 a[15] *608:A 49.9017 
*END

*D_NET *10 0.000853005
*CONN
*P a[16] I
*I *609:A I *D sky130_fd_sc_hd__clkbuf_1
*CAP
1 a[16] 0.000351718
2 *609:A 0
3 *10:19 0.000351718
4 *10:19 *599:A 2.12457e-05
5 *10:19 *42:11 0.000128325
6 *10:19 *235:10 0
*RES
1 a[16] *10:19 41.1491 
2 *10:19 *609:A 23 
*END

*D_NET *11 0.00129979
*CONN
*P a[17] I
*I *610:A I *D sky130_fd_sc_hd__clkbuf_1
*CAP
1 a[17] 0.000465826
2 *610:A 0.000465826
3 *610:A *601:A 0
4 *610:A *27:11 0.000348666
5 *610:A *32:17 0
6 *610:A *247:8 1.94693e-05
*RES
1 a[17] *610:A 49.1236 
*END

*D_NET *12 0.000596347
*CONN
*P a[18] I
*I *548:A I *D sky130_fd_sc_hd__clkbuf_1
*CAP
1 a[18] 0.000265599
2 *548:A 0.000265599
3 *548:A *505:B 0
4 *548:A *583:A 3.25743e-05
5 *548:A *113:8 0
6 *608:A *548:A 3.25743e-05
*RES
1 a[18] *548:A 49.5496 
*END

*D_NET *13 0.000609663
*CONN
*P a[19] I
*I *549:A I *D sky130_fd_sc_hd__clkbuf_1
*CAP
1 a[19] 0.000174335
2 *549:A 0.000174335
3 *549:A *506:B 0
4 *549:A *583:A 3.37555e-05
5 *549:A *113:16 7.53384e-06
6 *549:A *115:12 0.000187129
7 *7:15 *549:A 3.25743e-05
*RES
1 a[19] *549:A 49.1975 
*END

*D_NET *14 0.00289232
*CONN
*P a[1] I
*I *550:A I *D sky130_fd_sc_hd__clkbuf_1
*CAP
1 a[1] 0.00106861
2 *550:A 0
3 *14:17 0.00106861
4 *14:17 *527:B1 9.44092e-05
5 *14:17 *568:A 0
6 *14:17 *604:A 9.02983e-05
7 *14:17 *41:19 1.0376e-05
8 *14:17 *46:13 0.000201616
9 *14:17 *131:10 0.000125685
10 *14:17 *186:10 5.50106e-05
11 *14:17 *236:8 4.17736e-05
12 *14:17 *236:18 0.000106238
13 *602:A *14:17 2.96955e-05
*RES
1 a[1] *14:17 32.4987 
2 *14:17 *550:A 23 
*END

*D_NET *15 0.00126211
*CONN
*P a[20] I
*I *551:A I *D sky130_fd_sc_hd__clkbuf_1
*CAP
1 a[20] 0.000602535
2 *551:A 0.000602535
3 *551:A *479:B 3.22879e-05
4 *551:A *552:A 0
5 *551:A *586:A 0
6 *551:A *187:6 2.4754e-05
*RES
1 a[20] *551:A 49.8486 
*END

*D_NET *16 0.000935849
*CONN
*P a[21] I
*I *552:A I *D sky130_fd_sc_hd__clkbuf_1
*CAP
1 a[21] 0.000392376
2 *552:A 0.000392376
3 *552:A *37:19 0
4 *552:A *38:17 0.000151098
5 *551:A *552:A 0
6 *6:19 *552:A 0
*RES
1 a[21] *552:A 47.7979 
*END

*D_NET *17 0.00334771
*CONN
*P a[22] I
*I *553:A I *D sky130_fd_sc_hd__clkbuf_1
*CAP
1 a[22] 0.00134638
2 *553:A 0
3 *17:11 0.00134638
4 *17:11 *461:A_N 0.000357631
5 *17:11 *19:15 0.000113345
6 *17:11 *52:15 0
7 *17:11 *193:10 0.000175903
8 *17:11 *244:24 8.06804e-06
*RES
1 a[22] *17:11 43.4407 
2 *17:11 *553:A 23 
*END

*D_NET *18 0.00118864
*CONN
*P a[23] I
*I *554:A I *D sky130_fd_sc_hd__clkbuf_1
*CAP
1 a[23] 0.000508593
2 *554:A 0.000508593
3 *554:A *476:A_N 0.000143655
4 *554:A *588:A 0
5 *554:A *589:A 0
6 *554:A *76:14 1.01436e-05
7 *554:A *224:6 1.76557e-05
*RES
1 a[23] *554:A 49.2271 
*END

*D_NET *19 0.00283627
*CONN
*P a[24] I
*I *555:A I *D sky130_fd_sc_hd__clkbuf_1
*CAP
1 a[24] 0.000978591
2 *555:A 0
3 *19:15 0.000978591
4 *19:15 z 5.83471e-05
5 *19:15 *461:A_N 0.000281537
6 *19:15 *461:B 0.00014196
7 *19:15 *556:A 0
8 *19:15 *593:A 0.000155396
9 *19:15 *52:15 0
10 *19:15 *152:10 5.67058e-05
11 *19:15 *229:8 5.93643e-05
12 *19:15 *244:24 1.24376e-05
13 *17:11 *19:15 0.000113345
*RES
1 a[24] *19:15 37.9929 
2 *19:15 *555:A 23 
*END

*D_NET *20 0.000929407
*CONN
*P a[25] I
*I *556:A I *D sky130_fd_sc_hd__buf_1
*CAP
1 a[25] 0.000464703
2 *556:A 0.000464703
3 *556:A *590:A 0
4 *556:A *593:A 0
5 *556:A *192:10 0
6 *19:15 *556:A 0
*RES
1 a[25] *556:A 47.3214 
*END

*D_NET *21 0.00295532
*CONN
*P a[26] I
*I *557:A I *D sky130_fd_sc_hd__buf_1
*CAP
1 a[26] 0.00111127
2 *557:A 0
3 *21:13 0.00111127
4 *21:13 z 0
5 *21:13 *468:B1 6.47275e-05
6 *21:13 *540:A4 3.04021e-05
7 *21:13 *588:A 0
8 *21:13 *590:A 6.18641e-05
9 *21:13 *593:A 7.48695e-05
10 *21:13 *70:8 0.000137788
11 *21:13 *72:10 9.10312e-05
12 *21:13 *189:10 7.44257e-05
13 *21:13 *192:10 0
14 *21:13 *193:10 4.67488e-05
15 *21:13 *228:8 0.000138718
16 *21:13 *244:24 1.21972e-05
*RES
1 a[26] *21:13 34.4605 
2 *21:13 *557:A 23 
*END

*D_NET *22 0.00183328
*CONN
*P a[27] I
*I *559:A I *D sky130_fd_sc_hd__clkbuf_1
*CAP
1 a[27] 0.000719859
2 *559:A 0
3 *22:15 0.000719859
4 *22:15 z 5.0341e-05
5 *22:15 *463:A_N 0.000139352
6 *22:15 *594:A 8.32186e-05
7 *22:15 *180:10 9.58714e-05
8 *22:15 *195:10 2.47815e-05
9 *22:15 *195:20 0
*RES
1 a[27] *22:15 35.1106 
2 *22:15 *559:A 23 
*END

*D_NET *23 0.00252962
*CONN
*P a[28] I
*I *560:A I *D sky130_fd_sc_hd__clkbuf_1
*CAP
1 a[28] 0.000892007
2 *560:A 0
3 *23:15 0.000892007
4 *23:15 *566:A 0
5 *23:15 *603:A 0.000382936
6 *23:15 *24:11 0.000153173
7 *23:15 *27:11 0.000209496
8 *23:15 *30:13 0
*RES
1 a[28] *23:15 36.2419 
2 *23:15 *560:A 23 
*END

*D_NET *24 0.00272177
*CONN
*P a[29] I
*I *561:A I *D sky130_fd_sc_hd__buf_1
*CAP
1 a[29] 0.000954861
2 *561:A 0
3 *24:11 0.000954861
4 *24:11 *434:A 2.90785e-05
5 *24:11 *503:B 0.000140949
6 *24:11 *563:A 0.000133823
7 *24:11 *27:11 0.00018165
8 *24:11 *30:13 0
9 *24:11 *196:8 0
10 *24:11 *239:10 0.000173371
11 *23:15 *24:11 0.000153173
*RES
1 a[29] *24:11 32.4957 
2 *24:11 *561:A 23 
*END

*D_NET *25 0.00164558
*CONN
*P a[2] I
*I *562:A I *D sky130_fd_sc_hd__clkbuf_1
*CAP
1 a[2] 0.000651312
2 *562:A 0
3 *25:15 0.000651312
4 *25:15 *494:B 1.32314e-05
5 *25:15 *527:A1 5.3304e-05
6 *25:15 *600:A 6.81213e-05
7 *25:15 *604:A 0
8 *25:15 *46:13 0
9 *25:15 *201:29 1.14452e-05
10 *25:15 *236:8 0.000196852
*RES
1 a[2] *25:15 28.7957 
2 *25:15 *562:A 23 
*END

*D_NET *26 0.000892955
*CONN
*P a[30] I
*I *563:A I *D sky130_fd_sc_hd__buf_1
*CAP
1 a[30] 0.000337844
2 *563:A 0.000337844
3 *563:A *56:11 5.09304e-05
4 *563:A *199:8 9.86551e-06
5 *563:A *232:8 2.26497e-05
6 *24:11 *563:A 0.000133823
*RES
1 a[30] *563:A 48.6319 
*END

*D_NET *27 0.00294438
*CONN
*P a[31] I
*I *564:A I *D sky130_fd_sc_hd__clkbuf_1
*CAP
1 a[31] 0.00110228
2 *564:A 0
3 *27:11 0.00110228
4 *27:11 *601:A 0
5 *610:A *27:11 0.000348666
6 *23:15 *27:11 0.000209496
7 *24:11 *27:11 0.00018165
*RES
1 a[31] *27:11 31.8425 
2 *27:11 *564:A 23 
*END

*D_NET *28 0.00277984
*CONN
*P a[3] I
*I *565:A I *D sky130_fd_sc_hd__clkbuf_1
*CAP
1 a[3] 0.000976823
2 *565:A 0
3 *28:13 0.000976823
4 *28:13 *35:17 0
5 *28:13 *57:17 0
6 *28:13 *101:8 0
7 *28:13 *102:10 4.58924e-05
8 *28:13 *183:8 0
9 *28:13 *209:10 0.00010018
10 *28:13 *238:10 0
11 *602:A *28:13 1.09886e-05
12 *3:17 *28:13 0.000669132
*RES
1 a[3] *28:13 38.4071 
2 *28:13 *565:A 23 
*END

*D_NET *29 0.00103444
*CONN
*P a[4] I
*I *566:A I *D sky130_fd_sc_hd__clkbuf_1
*CAP
1 a[4] 0.000517219
2 *566:A 0.000517219
3 *566:A *603:A 0
4 *23:15 *566:A 0
*RES
1 a[4] *566:A 48.1707 
*END

*D_NET *30 0.0013468
*CONN
*P a[5] I
*I *567:A I *D sky130_fd_sc_hd__clkbuf_1
*CAP
1 a[5] 0.000639857
2 *567:A 0
3 *30:13 0.000639857
4 *30:13 *448:A 6.09117e-05
5 *30:13 *601:A 0
6 *30:13 *603:A 0
7 *30:13 *239:10 6.17437e-06
8 *23:15 *30:13 0
9 *24:11 *30:13 0
*RES
1 a[5] *30:13 27.6771 
2 *30:13 *567:A 23 
*END

*D_NET *31 0.000958676
*CONN
*P a[6] I
*I *568:A I *D sky130_fd_sc_hd__clkbuf_1
*CAP
1 a[6] 0.000479338
2 *568:A 0.000479338
3 *568:A *604:A 0
4 *568:A *605:A 0
5 *568:A *35:17 0
6 *14:17 *568:A 0
*RES
1 a[6] *568:A 48.1707 
*END

*D_NET *32 0.00153743
*CONN
*P a[7] I
*I *570:A I *D sky130_fd_sc_hd__clkbuf_1
*CAP
1 a[7] 0.000681546
2 *570:A 0
3 *32:17 0.000681546
4 *32:17 *491:A_N 1.05814e-05
5 *32:17 *491:B 0.000108469
6 *32:17 *605:A 5.15762e-05
7 *32:17 *241:8 3.7122e-06
8 *610:A *32:17 0
*RES
1 a[7] *32:17 28.4643 
2 *32:17 *570:A 23 
*END

*D_NET *33 0.00321049
*CONN
*P a[8] I
*I *571:A I *D sky130_fd_sc_hd__clkbuf_1
*CAP
1 a[8] 0.00108017
2 *571:A 0
3 *33:19 0.00108017
4 *33:19 *520:B1 0
5 *33:19 *37:19 0.000177259
6 *33:19 *38:17 0.000218136
7 *33:19 *48:21 0.000153112
8 *33:19 *65:17 5.32136e-05
9 *33:19 *117:10 7.62396e-05
10 *33:19 *121:16 4.6872e-05
11 *33:19 *164:14 0.000108681
12 *33:19 *207:10 9.41704e-05
13 *33:19 *210:14 0
14 *33:19 *212:10 1.36806e-05
15 *33:19 *242:12 3.7122e-06
16 *569:A *33:19 0
17 *6:19 *33:19 0.000105074
*RES
1 a[8] *33:19 35.4578 
2 *33:19 *571:A 23 
*END

*D_NET *34 0.000453082
*CONN
*P a[9] I
*I *572:A I *D sky130_fd_sc_hd__clkbuf_1
*CAP
1 a[9] 0.000192781
2 *572:A 0.000192781
3 *572:A *445:A 0
4 *572:A *577:A 3.25743e-05
5 *572:A *607:A 3.49463e-05
6 *4:11 *572:A 0
*RES
1 a[9] *572:A 48.7003 
*END

*D_NET *35 0.00481619
*CONN
*P b[0] I
*I *573:A I *D sky130_fd_sc_hd__clkbuf_1
*CAP
1 b[0] 0.00182338
2 *573:A 0
3 *35:17 0.00182338
4 *35:17 *604:A 0.000120896
5 *35:17 *41:19 0.000187315
6 *35:17 *46:13 0.000397369
7 *35:17 *99:8 2.79004e-05
8 *35:17 *186:10 9.63918e-05
9 *35:17 *201:10 0.000228001
10 *35:17 *204:8 8.85189e-05
11 *35:17 *215:10 2.30292e-05
12 *35:17 *233:16 0
13 *568:A *35:17 0
14 *28:13 *35:17 0
*RES
1 b[0] *35:17 48.2746 
2 *35:17 *573:A 23 
*END

*D_NET *36 0.00211674
*CONN
*P b[10] I
*I *574:A I *D sky130_fd_sc_hd__clkbuf_1
*CAP
1 b[10] 0.000756356
2 *574:A 0
3 *36:11 0.000756356
4 *36:11 *517:B 0.000247787
5 *36:11 *533:B1 0
6 *36:11 *48:21 0
7 *36:11 *118:10 0.000141052
8 *36:11 *121:16 0
9 *36:11 *164:14 0.000141052
10 *36:11 *210:14 7.41392e-05
11 *569:A *36:11 0
*RES
1 b[10] *36:11 30.0179 
2 *36:11 *574:A 23 
*END

*D_NET *37 0.00207954
*CONN
*P b[11] I
*I *575:A I *D sky130_fd_sc_hd__clkbuf_1
*CAP
1 b[11] 0.000597723
2 *575:A 0
3 *37:19 0.000597723
4 *37:19 *513:A_N 5.90675e-06
5 *37:19 *516:A_N 6.68919e-05
6 *37:19 *117:10 9.5877e-05
7 *37:19 *205:8 2.80924e-06
8 *37:19 *211:12 8.9167e-05
9 *552:A *37:19 0
10 *569:A *37:19 1.79457e-05
11 *6:19 *37:19 0.00042824
12 *33:19 *37:19 0.000177259
*RES
1 b[11] *37:19 30.4943 
2 *37:19 *575:A 23 
*END

*D_NET *38 0.00304152
*CONN
*P b[12] I
*I *576:A I *D sky130_fd_sc_hd__buf_1
*CAP
1 b[12] 0.000989074
2 *576:A 0
3 *38:17 0.000989074
4 *38:17 *45:15 0
5 *38:17 *48:21 0
6 *38:17 *120:10 0.000105189
7 *38:17 *187:25 0
8 *38:17 *188:8 7.24366e-05
9 *38:17 *220:28 8.40914e-05
10 *552:A *38:17 0.000151098
11 *6:19 *38:17 0.000432424
12 *33:19 *38:17 0.000218136
*RES
1 b[12] *38:17 38.3107 
2 *38:17 *576:A 23 
*END

*D_NET *39 0.00059817
*CONN
*P b[13] I
*I *577:A I *D sky130_fd_sc_hd__buf_1
*CAP
1 b[13] 0.000266511
2 *577:A 0.000266511
3 *577:A *213:8 0
4 *572:A *577:A 3.25743e-05
5 *7:15 *577:A 3.25743e-05
*RES
1 b[13] *577:A 49.9017 
*END

*D_NET *40 0.000577753
*CONN
*P b[14] I
*I *578:A I *D sky130_fd_sc_hd__clkbuf_1
*CAP
1 b[14] 0.000162402
2 *578:A 0.000162402
3 *578:A *238:10 0
4 *602:A *578:A 3.25743e-05
5 *608:A *578:A 3.49463e-05
6 *3:17 *578:A 0.000185428
*RES
1 b[14] *578:A 48.7003 
*END

*D_NET *41 0.00410532
*CONN
*P b[15] I
*I *579:A I *D sky130_fd_sc_hd__clkbuf_1
*CAP
1 b[15] 0.00188275
2 *579:A 0
3 *41:19 0.00188275
4 *41:19 *46:13 0
5 *41:19 *132:10 2.26406e-05
6 *41:19 *201:10 9.60326e-05
7 *41:19 *221:10 0
8 *3:17 *41:19 2.34406e-05
9 *14:17 *41:19 1.0376e-05
10 *35:17 *41:19 0.000187315
*RES
1 b[15] *41:19 47.1869 
2 *41:19 *579:A 23 
*END

*D_NET *42 0.00115746
*CONN
*P b[16] I
*I *581:A I *D sky130_fd_sc_hd__clkbuf_1
*CAP
1 b[16] 0.000407232
2 *581:A 0
3 *42:11 0.000407232
4 *42:11 *582:A 0.000112232
5 *42:11 *235:10 0.000102435
6 *10:19 *42:11 0.000128325
*RES
1 b[16] *42:11 27.0591 
2 *42:11 *581:A 23 
*END

*D_NET *43 0.000794902
*CONN
*P b[17] I
*I *582:A I *D sky130_fd_sc_hd__clkbuf_1
*CAP
1 b[17] 0.000302411
2 *582:A 0.000302411
3 *582:A *457:B 2.26406e-05
4 *582:A *598:A 0
5 *582:A *55:13 3.25681e-05
6 *582:A *231:8 2.26406e-05
7 *582:A *235:21 0
8 *42:11 *582:A 0.000112232
*RES
1 b[17] *582:A 48.0408 
*END

*D_NET *44 0.000539114
*CONN
*P b[18] I
*I *583:A I *D sky130_fd_sc_hd__clkbuf_1
*CAP
1 b[18] 0.000233439
2 *583:A 0.000233439
3 *583:A *113:8 0
4 *583:A *219:8 5.90675e-06
5 *548:A *583:A 3.25743e-05
6 *549:A *583:A 3.37555e-05
*RES
1 b[18] *583:A 49.1975 
*END

*D_NET *45 0.00435729
*CONN
*P b[19] I
*I *584:A I *D sky130_fd_sc_hd__buf_1
*CAP
1 b[19] 0.00149921
2 *584:A 0
3 *45:15 0.00149921
4 *45:15 *586:A 0.000239918
5 *45:15 *67:23 0.00068073
6 *45:15 *220:14 5.40876e-05
7 *45:15 *222:10 3.7122e-06
8 *45:15 *223:10 0.000139969
9 *6:19 *45:15 0.000240454
10 *38:17 *45:15 0
*RES
1 b[19] *45:15 41.9398 
2 *45:15 *584:A 23 
*END

*D_NET *46 0.00382027
*CONN
*P b[1] I
*I *585:A I *D sky130_fd_sc_hd__clkbuf_1
*CAP
1 b[1] 0.00136106
2 *585:A 0
3 *46:13 0.00136106
4 *46:13 *527:B1 0
5 *46:13 *529:A1 2.73566e-05
6 *46:13 *604:A 2.2781e-05
7 *46:13 *98:8 7.03481e-05
8 *46:13 *186:10 0
9 *46:13 *201:10 0
10 *46:13 *201:29 0
11 *46:13 *233:16 0.00026599
12 *46:13 *236:18 6.93553e-05
13 *46:13 *240:8 4.334e-05
14 *14:17 *46:13 0.000201616
15 *25:15 *46:13 0
16 *35:17 *46:13 0.000397369
17 *41:19 *46:13 0
*RES
1 b[1] *46:13 38.2309 
2 *46:13 *585:A 23 
*END

*D_NET *47 0.000916145
*CONN
*P b[20] I
*I *586:A I *D sky130_fd_sc_hd__clkbuf_1
*CAP
1 b[20] 0.000338113
2 *586:A 0.000338113
3 *551:A *586:A 0
4 *45:15 *586:A 0.000239918
*RES
1 b[20] *586:A 47.3214 
*END

*D_NET *48 0.00655718
*CONN
*P b[21] I
*I *587:A I *D sky130_fd_sc_hd__clkbuf_1
*CAP
1 b[21] 0.00262758
2 *587:A 0
3 *48:21 0.00262758
4 *48:21 *517:B 0
5 *48:21 *65:17 1.08037e-05
6 *48:21 *75:29 1.26005e-05
7 *48:21 *80:10 0.000122337
8 *48:21 *137:14 0
9 *48:21 *216:12 0
10 *48:21 *220:14 0.000811666
11 *48:21 *225:10 0
12 *48:21 *225:29 0.000191495
13 *4:11 *48:21 0
14 *33:19 *48:21 0.000153112
15 *36:11 *48:21 0
16 *38:17 *48:21 0
*RES
1 b[21] *48:21 49.3699 
2 *48:21 *587:A 23 
*END

*D_NET *49 0.000874853
*CONN
*P b[22] I
*I *588:A I *D sky130_fd_sc_hd__clkbuf_1
*CAP
1 b[22] 0.000437427
2 *588:A 0.000437427
3 *588:A *590:A 0
4 *554:A *588:A 0
5 *21:13 *588:A 0
*RES
1 b[22] *588:A 47.3214 
*END

*D_NET *50 0.00104178
*CONN
*P b[23] I
*I *589:A I *D sky130_fd_sc_hd__clkbuf_1
*CAP
1 b[23] 0.000519211
2 *589:A 0.000519211
3 *589:A *67:23 0
4 *589:A *75:29 3.36312e-06
5 *589:A *77:16 0
6 *554:A *589:A 0
*RES
1 b[23] *589:A 47.7979 
*END

*D_NET *51 0.00108238
*CONN
*P b[24] I
*I *590:A I *D sky130_fd_sc_hd__clkbuf_1
*CAP
1 b[24] 0.000469804
2 *590:A 0.000469804
3 *590:A *468:B1 1.03876e-05
4 *590:A *72:10 2.98648e-05
5 *590:A *192:10 3.3123e-05
6 *590:A *226:6 7.53384e-06
7 *556:A *590:A 0
8 *588:A *590:A 0
9 *21:13 *590:A 6.18641e-05
*RES
1 b[24] *590:A 48.4193 
*END

*D_NET *52 0.00301172
*CONN
*P b[25] I
*I *592:A I *D sky130_fd_sc_hd__clkbuf_1
*CAP
1 b[25] 0.00138814
2 *592:A 0
3 *52:15 0.00138814
4 *52:15 *464:A2 0.000145644
5 *52:15 *469:A 3.7122e-06
6 *52:15 *177:10 2.93845e-05
7 *52:15 *195:20 5.67058e-05
8 *52:15 *229:8 0
9 *17:11 *52:15 0
10 *19:15 *52:15 0
*RES
1 b[25] *52:15 44.2693 
2 *52:15 *592:A 23 
*END

*D_NET *53 0.000811755
*CONN
*P b[26] I
*I *593:A I *D sky130_fd_sc_hd__clkbuf_1
*CAP
1 b[26] 0.000240582
2 *593:A 0.000240582
3 *593:A z 6.79839e-05
4 *593:A *191:12 0
5 *593:A *229:8 3.23422e-05
6 *556:A *593:A 0
7 *19:15 *593:A 0.000155396
8 *21:13 *593:A 7.48695e-05
*RES
1 b[26] *593:A 48.8397 
*END

*D_NET *54 0.000615856
*CONN
*P b[27] I
*I *594:A I *D sky130_fd_sc_hd__clkbuf_1
*CAP
1 b[27] 0.000211009
2 *594:A 0.000211009
3 *594:A z 0
4 *594:A *599:A 7.53639e-05
5 *594:A *195:20 3.52558e-05
6 *22:15 *594:A 8.32186e-05
*RES
1 b[27] *594:A 48.1354 
*END

*D_NET *55 0.000928546
*CONN
*P b[28] I
*I *595:A I *D sky130_fd_sc_hd__clkbuf_1
*CAP
1 b[28] 0.000431705
2 *595:A 0
3 *55:13 0.000431705
4 *55:13 *598:A 3.25681e-05
5 *55:13 *149:14 0
6 *55:13 *231:8 0
7 *582:A *55:13 3.25681e-05
*RES
1 b[28] *55:13 30.4025 
2 *55:13 *595:A 23 
*END

*D_NET *56 0.00108626
*CONN
*P b[29] I
*I *596:A I *D sky130_fd_sc_hd__clkbuf_1
*CAP
1 b[29] 0.000394796
2 *596:A 0
3 *56:11 0.000394796
4 *56:11 *598:A 7.82365e-05
5 *56:11 *232:8 0.000167505
6 *563:A *56:11 5.09304e-05
*RES
1 b[29] *56:11 29.3611 
2 *56:11 *596:A 23 
*END

*D_NET *57 0.00238946
*CONN
*P b[2] I
*I *597:A I *D sky130_fd_sc_hd__buf_1
*CAP
1 b[2] 0.000863732
2 *597:A 0
3 *57:17 0.000863732
4 *57:17 *450:A 0
5 *57:17 *498:A_N 4.77059e-05
6 *57:17 *600:A 0
7 *57:17 *101:8 0.000107498
8 *57:17 *102:10 3.68112e-05
9 *57:17 *183:8 0.000433821
10 *57:17 *186:26 2.99887e-05
11 *57:17 *238:10 6.17437e-06
12 *28:13 *57:17 0
*RES
1 b[2] *57:17 34.3264 
2 *57:17 *597:A 23 
*END

*D_NET *58 0.000711625
*CONN
*P b[30] I
*I *598:A I *D sky130_fd_sc_hd__clkbuf_1
*CAP
1 b[30] 0.000262958
2 *598:A 0.000262958
3 *598:A *170:8 4.334e-05
4 *598:A *234:10 3.15638e-05
5 *582:A *598:A 0
6 *55:13 *598:A 3.25681e-05
7 *56:11 *598:A 7.82365e-05
*RES
1 b[30] *598:A 49.1918 
*END

*D_NET *59 0.000551562
*CONN
*P b[31] I
*I *599:A I *D sky130_fd_sc_hd__buf_1
*CAP
1 b[31] 0.000227476
2 *599:A 0.000227476
3 *594:A *599:A 7.53639e-05
4 *10:19 *599:A 2.12457e-05
*RES
1 b[31] *599:A 47.7832 
*END

*D_NET *60 0.00124244
*CONN
*P b[3] I
*I *600:A I *D sky130_fd_sc_hd__clkbuf_1
*CAP
1 b[3] 0.000572674
2 *600:A 0.000572674
3 *600:A *201:29 4.21594e-06
4 *600:A *236:8 2.4754e-05
5 *25:15 *600:A 6.81213e-05
6 *57:17 *600:A 0
*RES
1 b[3] *600:A 49.745 
*END

*D_NET *61 0.00112472
*CONN
*P b[4] I
*I *601:A I *D sky130_fd_sc_hd__clkbuf_1
*CAP
1 b[4] 0.00055319
2 *601:A 0.00055319
3 *601:A *200:10 1.83446e-05
4 *610:A *601:A 0
5 *27:11 *601:A 0
6 *30:13 *601:A 0
*RES
1 b[4] *601:A 49.1236 
*END

*D_NET *62 0.00116287
*CONN
*P b[5] I
*I *603:A I *D sky130_fd_sc_hd__clkbuf_1
*CAP
1 b[5] 0.000389967
2 *603:A 0.000389967
3 *603:A *448:A 0
4 *566:A *603:A 0
5 *23:15 *603:A 0.000382936
6 *30:13 *603:A 0
*RES
1 b[5] *603:A 48.1707 
*END

*D_NET *63 0.00114869
*CONN
*P b[6] I
*I *604:A I *D sky130_fd_sc_hd__clkbuf_1
*CAP
1 b[6] 0.000457355
2 *604:A 0.000457355
3 *604:A *494:B 0
4 *568:A *604:A 0
5 *14:17 *604:A 9.02983e-05
6 *25:15 *604:A 0
7 *35:17 *604:A 0.000120896
8 *46:13 *604:A 2.2781e-05
*RES
1 b[6] *604:A 49.1236 
*END

*D_NET *64 0.00113977
*CONN
*P b[7] I
*I *605:A I *D sky130_fd_sc_hd__clkbuf_1
*CAP
1 b[7] 0.000538352
2 *605:A 0.000538352
3 *605:A *241:8 1.14876e-05
4 *568:A *605:A 0
5 *32:17 *605:A 5.15762e-05
*RES
1 b[7] *605:A 49.2686 
*END

*D_NET *65 0.00114388
*CONN
*P b[8] I
*I *606:A I *D sky130_fd_sc_hd__buf_1
*CAP
1 b[8] 0.000435237
2 *606:A 0
3 *65:17 0.000435237
4 *65:17 *517:B 0
5 *65:17 *607:A 0.000135127
6 *65:17 *194:10 0
7 *4:11 *65:17 7.42621e-05
8 *33:19 *65:17 5.32136e-05
9 *48:21 *65:17 1.08037e-05
*RES
1 b[8] *65:17 30.1599 
2 *65:17 *606:A 23 
*END

*D_NET *66 0.000682673
*CONN
*P b[9] I
*I *607:A I *D sky130_fd_sc_hd__buf_1
*CAP
1 b[9] 0.000163586
2 *607:A 0.000163586
3 *572:A *607:A 3.49463e-05
4 *4:11 *607:A 0.000185428
5 *65:17 *607:A 0.000135127
*RES
1 b[9] *607:A 48.7003 
*END
