*SPEF "ieee 1481-1999"
*DESIGN "comp32"
*DATE "20:15:49 Monday April 29, 2024"
*VENDOR "The OpenROAD Project"
*PROGRAM "OpenROAD"
*VERSION "0889970d1790a2617e69f253221b8bd7626e51dc"
*DESIGN_FLOW "NAME_SCOPE LOCAL" "PIN_CAP NONE"
*DIVIDER /
*DELIMITER :
*BUS_DELIMITER []
*T_UNIT 1 NS
*C_UNIT 1 PF
*R_UNIT 1 OHM
*L_UNIT 1 HENRY

*NAME_MAP
*3 a[0]
*4 a[10]
*5 a[11]
*6 a[12]
*7 a[13]
*8 a[14]
*9 a[15]
*10 a[16]
*11 a[17]
*12 a[18]
*13 a[19]
*14 a[1]
*15 a[20]
*16 a[21]
*17 a[22]
*18 a[23]
*19 a[24]
*20 a[25]
*21 a[26]
*22 a[27]
*23 a[28]
*24 a[29]
*25 a[2]
*26 a[30]
*27 a[31]
*28 a[3]
*29 a[4]
*30 a[5]
*31 a[6]
*32 a[7]
*33 a[8]
*34 a[9]
*35 b[0]
*36 b[10]
*37 b[11]
*38 b[12]
*39 b[13]
*40 b[14]
*41 b[15]
*42 b[16]
*43 b[17]
*44 b[18]
*45 b[19]
*46 b[1]
*47 b[20]
*48 b[21]
*49 b[22]
*50 b[23]
*51 b[24]
*52 b[25]
*53 b[26]
*54 b[27]
*55 b[28]
*56 b[29]
*57 b[2]
*58 b[30]
*59 b[31]
*60 b[3]
*61 b[4]
*62 b[5]
*63 b[6]
*64 b[7]
*65 b[8]
*66 b[9]
*67 clk
*68 z
*69 _000_
*70 _001_
*71 _002_
*72 _003_
*73 _004_
*74 _005_
*75 _006_
*76 _007_
*77 _008_
*78 _009_
*79 _010_
*80 _011_
*81 _012_
*82 _013_
*83 _014_
*84 _015_
*85 _016_
*86 _017_
*87 _018_
*88 _019_
*89 _020_
*90 _021_
*91 _022_
*92 _023_
*93 _024_
*94 _025_
*95 _026_
*96 _027_
*97 _028_
*98 _029_
*99 _030_
*100 _031_
*101 _032_
*102 _033_
*103 _034_
*104 _035_
*105 _036_
*106 _037_
*107 _038_
*108 _039_
*109 _040_
*110 _041_
*111 _042_
*112 _043_
*113 _044_
*114 _045_
*115 _046_
*116 _047_
*117 _048_
*118 _049_
*119 _050_
*120 _051_
*121 _052_
*122 _053_
*123 _054_
*124 _055_
*125 _056_
*126 _057_
*127 _058_
*128 _059_
*129 _060_
*130 _061_
*131 _062_
*132 _063_
*133 _064_
*134 _065_
*135 _066_
*136 _067_
*137 _068_
*138 _069_
*139 _070_
*140 _071_
*141 _072_
*142 _073_
*143 _074_
*144 _075_
*145 _076_
*146 _077_
*147 _078_
*148 _079_
*149 _080_
*150 _081_
*151 _082_
*152 _083_
*153 _084_
*154 _085_
*155 _086_
*156 _087_
*157 _088_
*158 _089_
*159 _090_
*160 _091_
*161 _092_
*162 _093_
*163 _094_
*164 _095_
*165 _096_
*166 _097_
*167 _098_
*168 _099_
*169 _100_
*170 _101_
*171 _102_
*172 _103_
*173 _104_
*174 _105_
*175 _106_
*176 _107_
*177 _108_
*178 _109_
*179 _110_
*180 _111_
*181 _112_
*182 _113_
*183 net1
*184 net10
*185 net11
*186 net12
*187 net13
*188 net14
*189 net15
*190 net16
*191 net17
*192 net18
*193 net19
*194 net2
*195 net20
*196 net21
*197 net22
*198 net23
*199 net24
*200 net25
*201 net26
*202 net27
*203 net28
*204 net29
*205 net3
*206 net30
*207 net31
*208 net32
*209 net33
*210 net34
*211 net35
*212 net36
*213 net37
*214 net38
*215 net39
*216 net4
*217 net40
*218 net41
*219 net42
*220 net43
*221 net44
*222 net45
*223 net46
*224 net47
*225 net48
*226 net49
*227 net5
*228 net50
*229 net51
*230 net52
*231 net53
*232 net54
*233 net55
*234 net56
*235 net57
*236 net58
*237 net59
*238 net6
*239 net60
*240 net61
*241 net62
*242 net63
*243 net64
*244 net65
*245 net7
*246 net8
*247 net9
*248 FILLER_0_0_20
*249 FILLER_0_0_35
*250 FILLER_0_0_57
*251 FILLER_0_0_6
*252 FILLER_0_0_90
*253 FILLER_0_10_26
*254 FILLER_0_10_29
*255 FILLER_0_10_41
*256 FILLER_0_10_53
*257 FILLER_0_10_65
*258 FILLER_0_10_83
*259 FILLER_0_11_22
*260 FILLER_0_11_34
*261 FILLER_0_11_46
*262 FILLER_0_11_54
*263 FILLER_0_11_57
*264 FILLER_0_11_6
*265 FILLER_0_11_69
*266 FILLER_0_11_77
*267 FILLER_0_12_17
*268 FILLER_0_12_25
*269 FILLER_0_12_29
*270 FILLER_0_12_3
*271 FILLER_0_12_41
*272 FILLER_0_12_53
*273 FILLER_0_12_65
*274 FILLER_0_12_71
*275 FILLER_0_12_85
*276 FILLER_0_13_20
*277 FILLER_0_13_29
*278 FILLER_0_13_3
*279 FILLER_0_13_33
*280 FILLER_0_13_52
*281 FILLER_0_13_57
*282 FILLER_0_13_63
*283 FILLER_0_13_79
*284 FILLER_0_13_88
*285 FILLER_0_14_3
*286 FILLER_0_14_36
*287 FILLER_0_14_63
*288 FILLER_0_14_76
*289 FILLER_0_14_91
*290 FILLER_0_15_16
*291 FILLER_0_15_26
*292 FILLER_0_15_29
*293 FILLER_0_15_37
*294 FILLER_0_15_41
*295 FILLER_0_15_55
*296 FILLER_0_15_57
*297 FILLER_0_15_62
*298 FILLER_0_15_9
*299 FILLER_0_15_90
*300 FILLER_0_1_47
*301 FILLER_0_1_64
*302 FILLER_0_1_7
*303 FILLER_0_1_79
*304 FILLER_0_1_91
*305 FILLER_0_2_23
*306 FILLER_0_2_27
*307 FILLER_0_2_29
*308 FILLER_0_2_3
*309 FILLER_0_2_49
*310 FILLER_0_2_61
*311 FILLER_0_2_79
*312 FILLER_0_2_85
*313 FILLER_0_3_25
*314 FILLER_0_3_3
*315 FILLER_0_3_37
*316 FILLER_0_3_49
*317 FILLER_0_3_55
*318 FILLER_0_3_57
*319 FILLER_0_3_69
*320 FILLER_0_3_88
*321 FILLER_0_4_22
*322 FILLER_0_4_29
*323 FILLER_0_4_53
*324 FILLER_0_4_65
*325 FILLER_0_4_82
*326 FILLER_0_4_88
*327 FILLER_0_5_13
*328 FILLER_0_5_17
*329 FILLER_0_5_21
*330 FILLER_0_5_3
*331 FILLER_0_5_33
*332 FILLER_0_5_49
*333 FILLER_0_5_55
*334 FILLER_0_5_57
*335 FILLER_0_5_74
*336 FILLER_0_5_78
*337 FILLER_0_5_88
*338 FILLER_0_6_14
*339 FILLER_0_6_23
*340 FILLER_0_6_27
*341 FILLER_0_6_29
*342 FILLER_0_6_41
*343 FILLER_0_6_49
*344 FILLER_0_6_55
*345 FILLER_0_6_6
*346 FILLER_0_6_72
*347 FILLER_0_7_18
*348 FILLER_0_7_30
*349 FILLER_0_7_6
*350 FILLER_0_7_69
*351 FILLER_0_7_75
*352 FILLER_0_7_88
*353 FILLER_0_8_15
*354 FILLER_0_8_21
*355 FILLER_0_8_25
*356 FILLER_0_8_3
*357 FILLER_0_8_41
*358 FILLER_0_8_53
*359 FILLER_0_8_57
*360 FILLER_0_8_63
*361 FILLER_0_8_68
*362 FILLER_0_8_80
*363 FILLER_0_8_85
*364 FILLER_0_9_12
*365 FILLER_0_9_16
*366 FILLER_0_9_24
*367 FILLER_0_9_35
*368 FILLER_0_9_47
*369 FILLER_0_9_55
*370 FILLER_0_9_57
*371 FILLER_0_9_69
*372 FILLER_0_9_77
*373 PHY_EDGE_ROW_0_Left_16
*374 PHY_EDGE_ROW_0_Right_0
*375 PHY_EDGE_ROW_10_Left_26
*376 PHY_EDGE_ROW_10_Right_10
*377 PHY_EDGE_ROW_11_Left_27
*378 PHY_EDGE_ROW_11_Right_11
*379 PHY_EDGE_ROW_12_Left_28
*380 PHY_EDGE_ROW_12_Right_12
*381 PHY_EDGE_ROW_13_Left_29
*382 PHY_EDGE_ROW_13_Right_13
*383 PHY_EDGE_ROW_14_Left_30
*384 PHY_EDGE_ROW_14_Right_14
*385 PHY_EDGE_ROW_15_Left_31
*386 PHY_EDGE_ROW_15_Right_15
*387 PHY_EDGE_ROW_1_Left_17
*388 PHY_EDGE_ROW_1_Right_1
*389 PHY_EDGE_ROW_2_Left_18
*390 PHY_EDGE_ROW_2_Right_2
*391 PHY_EDGE_ROW_3_Left_19
*392 PHY_EDGE_ROW_3_Right_3
*393 PHY_EDGE_ROW_4_Left_20
*394 PHY_EDGE_ROW_4_Right_4
*395 PHY_EDGE_ROW_5_Left_21
*396 PHY_EDGE_ROW_5_Right_5
*397 PHY_EDGE_ROW_6_Left_22
*398 PHY_EDGE_ROW_6_Right_6
*399 PHY_EDGE_ROW_7_Left_23
*400 PHY_EDGE_ROW_7_Right_7
*401 PHY_EDGE_ROW_8_Left_24
*402 PHY_EDGE_ROW_8_Right_8
*403 PHY_EDGE_ROW_9_Left_25
*404 PHY_EDGE_ROW_9_Right_9
*405 TAP_TAPCELL_ROW_0_32
*406 TAP_TAPCELL_ROW_0_33
*407 TAP_TAPCELL_ROW_0_34
*408 TAP_TAPCELL_ROW_10_48
*409 TAP_TAPCELL_ROW_10_49
*410 TAP_TAPCELL_ROW_11_50
*411 TAP_TAPCELL_ROW_12_51
*412 TAP_TAPCELL_ROW_12_52
*413 TAP_TAPCELL_ROW_13_53
*414 TAP_TAPCELL_ROW_14_54
*415 TAP_TAPCELL_ROW_14_55
*416 TAP_TAPCELL_ROW_15_56
*417 TAP_TAPCELL_ROW_15_57
*418 TAP_TAPCELL_ROW_15_58
*419 TAP_TAPCELL_ROW_1_35
*420 TAP_TAPCELL_ROW_2_36
*421 TAP_TAPCELL_ROW_2_37
*422 TAP_TAPCELL_ROW_3_38
*423 TAP_TAPCELL_ROW_4_39
*424 TAP_TAPCELL_ROW_4_40
*425 TAP_TAPCELL_ROW_5_41
*426 TAP_TAPCELL_ROW_6_42
*427 TAP_TAPCELL_ROW_6_43
*428 TAP_TAPCELL_ROW_7_44
*429 TAP_TAPCELL_ROW_8_45
*430 TAP_TAPCELL_ROW_8_46
*431 TAP_TAPCELL_ROW_9_47
*432 _114_
*433 _115_
*434 _116_
*435 _117_
*436 _118_
*437 _119_
*438 _120_
*439 _121_
*440 _122_
*441 _123_
*442 _124_
*443 _125_
*444 _126_
*445 _127_
*446 _128_
*447 _129_
*448 _130_
*449 _131_
*450 _132_
*451 _133_
*452 _134_
*453 _135_
*454 _136_
*455 _137_
*456 _138_
*457 _139_
*458 _140_
*459 _141_
*460 _142_
*461 _143_
*462 _144_
*463 _145_
*464 _146_
*465 _147_
*466 _148_
*467 _149_
*468 _150_
*469 _151_
*470 _152_
*471 _153_
*472 _154_
*473 _155_
*474 _156_
*475 _157_
*476 _158_
*477 _159_
*478 _160_
*479 _161_
*480 _162_
*481 _163_
*482 _164_
*483 _165_
*484 _166_
*485 _167_
*486 _168_
*487 _169_
*488 _170_
*489 _171_
*490 _172_
*491 _173_
*492 _174_
*493 _175_
*494 _176_
*495 _177_
*496 _178_
*497 _179_
*498 _180_
*499 _181_
*500 _182_
*501 _183_
*502 _184_
*503 _185_
*504 _186_
*505 _187_
*506 _188_
*507 _189_
*508 _190_
*509 _191_
*510 _192_
*511 _193_
*512 _194_
*513 _195_
*514 _196_
*515 _197_
*516 _198_
*517 _199_
*518 _200_
*519 _201_
*520 _202_
*521 _203_
*522 _204_
*523 _205_
*524 _206_
*525 _207_
*526 _208_
*527 _209_
*528 _210_
*529 _211_
*530 _212_
*531 _213_
*532 _214_
*533 _215_
*534 _216_
*535 _217_
*536 _218_
*537 _219_
*538 _220_
*539 _221_
*540 _222_
*541 _223_
*542 _224_
*543 _225_
*544 _226_
*545 _227_
*546 _228_
*547 input1
*548 input10
*549 input11
*550 input12
*551 input13
*552 input14
*553 input15
*554 input16
*555 input17
*556 input18
*557 input19
*558 input2
*559 input20
*560 input21
*561 input22
*562 input23
*563 input24
*564 input25
*565 input26
*566 input27
*567 input28
*568 input29
*569 input3
*570 input30
*571 input31
*572 input32
*573 input33
*574 input34
*575 input35
*576 input36
*577 input37
*578 input38
*579 input39
*580 input4
*581 input40
*582 input41
*583 input42
*584 input43
*585 input44
*586 input45
*587 input46
*588 input47
*589 input48
*590 input49
*591 input5
*592 input50
*593 input51
*594 input52
*595 input53
*596 input54
*597 input55
*598 input56
*599 input57
*600 input58
*601 input59
*602 input6
*603 input60
*604 input61
*605 input62
*606 input63
*607 input64
*608 input7
*609 input8
*610 input9
*611 output65

*PORTS
a[0] I
a[10] I
a[11] I
a[12] I
a[13] I
a[14] I
a[15] I
a[16] I
a[17] I
a[18] I
a[19] I
a[1] I
a[20] I
a[21] I
a[22] I
a[23] I
a[24] I
a[25] I
a[26] I
a[27] I
a[28] I
a[29] I
a[2] I
a[30] I
a[31] I
a[3] I
a[4] I
a[5] I
a[6] I
a[7] I
a[8] I
a[9] I
b[0] I
b[10] I
b[11] I
b[12] I
b[13] I
b[14] I
b[15] I
b[16] I
b[17] I
b[18] I
b[19] I
b[1] I
b[20] I
b[21] I
b[22] I
b[23] I
b[24] I
b[25] I
b[26] I
b[27] I
b[28] I
b[29] I
b[2] I
b[30] I
b[31] I
b[3] I
b[4] I
b[5] I
b[6] I
b[7] I
b[8] I
b[9] I
clk I
z O

*D_NET *3 0.00280486
*CONN
*P a[0] I
*I *547:A I *D sky130_fd_sc_hd__clkbuf_1
*CAP
1 a[0] 0.000953415
2 *547:A 0.000953415
3 *547:A *565:A 0.00066699
4 *547:A *578:A 0.000186662
5 *547:A *579:A 2.48791e-05
6 *547:A *602:A 1.94945e-05
*RES
1 a[0] *547:A 39.2619 
*END

*D_NET *4 0.00259822
*CONN
*P a[10] I
*I *558:A I *D sky130_fd_sc_hd__clkbuf_1
*CAP
1 a[10] 0.000981963
2 *558:A 0.000981963
3 *558:A *520:B1 0
4 *558:A *572:A 0
5 *558:A *587:A 0
6 *558:A *606:A 7.32955e-05
7 *558:A *607:A 0.000186662
8 *558:A *194:10 7.15846e-05
9 *558:A *242:6 0.000229456
10 *558:A *243:8 7.32955e-05
*RES
1 a[10] *558:A 34.8179 
*END

*D_NET *5 0.00114989
*CONN
*P a[11] I
*I *569:A I *D sky130_fd_sc_hd__clkbuf_1
*CAP
1 a[11] 0.000501134
2 *569:A 0.000501134
3 *569:A *513:A_N 0
4 *569:A *518:D 3.05446e-05
5 *569:A *571:A 0
6 *569:A *574:A 0
7 *569:A *575:A 1.80376e-05
8 *569:A *205:8 9.90431e-05
*RES
1 a[11] *569:A 23.1929 
*END

*D_NET *6 0.00363613
*CONN
*P a[12] I
*I *580:A I *D sky130_fd_sc_hd__clkbuf_1
*CAP
1 a[12] 0.0010126
2 *580:A 0.0010126
3 *580:A *552:A 0
4 *580:A *571:A 0.000102367
5 *580:A *575:A 0.000399574
6 *580:A *576:A 0.000444168
7 *580:A *584:A 0.000255726
8 *580:A *117:12 9.77956e-05
9 *580:A *120:12 8.5354e-05
10 *580:A *164:14 0.00012501
11 *580:A *164:23 2.31791e-05
12 *580:A *212:18 7.77652e-05
13 *580:A *220:28 0
*RES
1 a[12] *580:A 35.3712 
*END

*D_NET *7 0.000587164
*CONN
*P a[13] I
*I *591:A I *D sky130_fd_sc_hd__clkbuf_1
*CAP
1 a[13] 0.000258989
2 *591:A 0.000258989
3 *591:A *444:A 0
4 *591:A *535:A3 0
5 *591:A *549:A 3.45929e-05
6 *591:A *577:A 3.45929e-05
7 *591:A *213:23 0
*RES
1 a[13] *591:A 20.8697 
*END

*D_NET *8 0.000478201
*CONN
*P a[14] I
*I *602:A I *D sky130_fd_sc_hd__clkbuf_1
*CAP
1 a[14] 0.000191041
2 *602:A 0.000191041
3 *602:A *550:A 3.14702e-05
4 *602:A *565:A 1.0562e-05
5 *602:A *578:A 3.45929e-05
6 *547:A *602:A 1.94945e-05
*RES
1 a[14] *602:A 19.5304 
*END

*D_NET *9 0.000537114
*CONN
*P a[15] I
*I *608:A I *D sky130_fd_sc_hd__clkbuf_1
*CAP
1 a[15] 0.000232678
2 *608:A 0.000232678
3 *608:A *505:B 0
4 *608:A *548:A 3.45929e-05
5 *608:A *578:A 3.71658e-05
6 *608:A *245:8 0
*RES
1 a[15] *608:A 20.5661 
*END

*D_NET *10 0.000780114
*CONN
*P a[16] I
*I *609:A I *D sky130_fd_sc_hd__clkbuf_1
*CAP
1 a[16] 0.000312398
2 *609:A 0.000312398
3 *609:A *581:A 0.000132722
4 *609:A *599:A 2.25951e-05
5 *609:A *235:10 0
*RES
1 a[16] *609:A 25.8571 
*END

*D_NET *11 0.00120062
*CONN
*P a[17] I
*I *610:A I *D sky130_fd_sc_hd__clkbuf_1
*CAP
1 a[17] 0.000434136
2 *610:A 0.000434136
3 *610:A *564:A 0.000313073
4 *610:A *570:A 0
5 *610:A *601:A 0
6 *610:A *247:18 1.92789e-05
*RES
1 a[17] *610:A 23.3893 
*END

*D_NET *12 0.000549336
*CONN
*P a[18] I
*I *548:A I *D sky130_fd_sc_hd__clkbuf_1
*CAP
1 a[18] 0.000240075
2 *548:A 0.000240075
3 *548:A *505:B 0
4 *548:A *583:A 3.45929e-05
5 *548:A *113:16 0
6 *608:A *548:A 3.45929e-05
*RES
1 a[18] *548:A 20.2625 
*END

*D_NET *13 0.000583118
*CONN
*P a[19] I
*I *549:A I *D sky130_fd_sc_hd__clkbuf_1
*CAP
1 a[19] 0.000158311
2 *549:A 0.000158311
3 *549:A *506:B 0
4 *549:A *535:A3 0.000188586
5 *549:A *583:A 3.58816e-05
6 *549:A *113:16 7.43578e-06
7 *591:A *549:A 3.45929e-05
*RES
1 a[19] *549:A 19.9589 
*END

*D_NET *14 0.00264572
*CONN
*P a[1] I
*I *550:A I *D sky130_fd_sc_hd__clkbuf_1
*CAP
1 a[1] 0.00094561
2 *550:A 0.00094561
3 *550:A *499:A_N 0.000106841
4 *550:A *527:B1 8.64454e-05
5 *550:A *529:A3 0.000119212
6 *550:A *568:A 0
7 *550:A *579:A 1.11192e-05
8 *550:A *585:A 0.000214104
9 *550:A *604:A 8.81884e-05
10 *550:A *186:14 5.52302e-05
11 *550:A *236:8 4.18895e-05
12 *602:A *550:A 3.14702e-05
*RES
1 a[1] *550:A 25.348 
*END

*D_NET *15 0.00117882
*CONN
*P a[20] I
*I *551:A I *D sky130_fd_sc_hd__clkbuf_1
*CAP
1 a[20] 0.000561259
2 *551:A 0.000561259
3 *551:A *479:B 3.18676e-05
4 *551:A *552:A 0
5 *551:A *586:A 0
6 *551:A *187:6 2.44318e-05
*RES
1 a[20] *551:A 24.0143 
*END

*D_NET *16 0.000880215
*CONN
*P a[21] I
*I *552:A I *D sky130_fd_sc_hd__clkbuf_1
*CAP
1 a[21] 0.000365732
2 *552:A 0.000365732
3 *552:A *575:A 0
4 *552:A *576:A 0.00014875
5 *551:A *552:A 0
6 *580:A *552:A 0
*RES
1 a[21] *552:A 22.2464 
*END

*D_NET *17 0.0031481
*CONN
*P a[22] I
*I *553:A I *D sky130_fd_sc_hd__clkbuf_1
*CAP
1 a[22] 0.00124647
2 *553:A 0.00124647
3 *553:A *461:A_N 0.000359997
4 *553:A *555:A 0.00011101
5 *553:A *592:A 0
6 *553:A *193:12 0.000175892
7 *553:A *244:30 8.25843e-06
*RES
1 a[22] *553:A 38.3179 
*END

*D_NET *18 0.00112647
*CONN
*P a[23] I
*I *554:A I *D sky130_fd_sc_hd__clkbuf_1
*CAP
1 a[23] 0.000477508
2 *554:A 0.000477508
3 *554:A *473:B 9.25014e-06
4 *554:A *476:A_N 0.000144773
5 *554:A *588:A 0
6 *554:A *589:A 0
7 *554:A *224:6 1.74352e-05
*RES
1 a[23] *554:A 23.4786 
*END

*D_NET *19 0.0026365
*CONN
*P a[24] I
*I *555:A I *D sky130_fd_sc_hd__clkbuf_1
*CAP
1 a[24] 0.000887945
2 *555:A 0.000887945
3 *555:A z 5.64584e-05
4 *555:A *461:A_N 0.00028143
5 *555:A *461:B 0.000142856
6 *555:A *464:A1 5.71472e-05
7 *555:A *556:A 0
8 *555:A *592:A 0
9 *555:A *593:A 0.000140379
10 *555:A *229:8 5.88932e-05
11 *555:A *244:30 1.24368e-05
12 *553:A *555:A 0.00011101
*RES
1 a[24] *555:A 33.6214 
*END

*D_NET *20 0.000870586
*CONN
*P a[25] I
*I *556:A I *D sky130_fd_sc_hd__buf_1
*CAP
1 a[25] 0.000435293
2 *556:A 0.000435293
3 *556:A *590:A 0
4 *556:A *593:A 0
5 *556:A *192:12 0
6 *555:A *556:A 0
*RES
1 a[25] *556:A 21.8357 
*END

*D_NET *21 0.0026432
*CONN
*P a[26] I
*I *557:A I *D sky130_fd_sc_hd__buf_1
*CAP
1 a[26] 0.000970336
2 *557:A 0.000970336
3 *557:A z 0
4 *557:A *468:B1 6.30818e-05
5 *557:A *469:B 8.7658e-05
6 *557:A *540:A4 3.06406e-05
7 *557:A *588:A 0
8 *557:A *590:A 5.9734e-05
9 *557:A *593:A 7.95028e-05
10 *557:A *70:8 0.00012501
11 *557:A *189:12 7.32272e-05
12 *557:A *192:12 0
13 *557:A *193:12 4.58194e-05
14 *557:A *228:16 0.000125724
15 *557:A *244:30 1.21258e-05
*RES
1 a[26] *557:A 27.0431 
*END

*D_NET *22 0.00169503
*CONN
*P a[27] I
*I *559:A I *D sky130_fd_sc_hd__clkbuf_1
*CAP
1 a[27] 0.000647455
2 *559:A 0.000647455
3 *559:A z 5.34774e-05
4 *559:A *460:A_N 0
5 *559:A *463:A_N 0.000139907
6 *559:A *594:A 8.58651e-05
7 *559:A *180:12 9.60875e-05
8 *559:A *195:10 2.47833e-05
*RES
1 a[27] *559:A 27.6388 
*END

*D_NET *23 0.00237162
*CONN
*P a[28] I
*I *560:A I *D sky130_fd_sc_hd__clkbuf_1
*CAP
1 a[28] 0.000820426
2 *560:A 0.000820426
3 *560:A *561:A 0.000138671
4 *560:A *564:A 0.00022263
5 *560:A *566:A 0
6 *560:A *567:A 0
7 *560:A *603:A 0.000369463
*RES
1 a[28] *560:A 28.5789 
*END

*D_NET *24 0.00243363
*CONN
*P a[29] I
*I *561:A I *D sky130_fd_sc_hd__buf_1
*CAP
1 a[29] 0.0008276
2 *561:A 0.0008276
3 *561:A *434:A 2.77909e-05
4 *561:A *503:B 0.000127439
5 *561:A *563:A 0.000134117
6 *561:A *564:A 0.000192445
7 *561:A *567:A 0
8 *561:A *196:8 0
9 *561:A *239:10 0.000157967
10 *560:A *561:A 0.000138671
*RES
1 a[29] *561:A 25.3473 
*END

*D_NET *25 0.00153596
*CONN
*P a[2] I
*I *562:A I *D sky130_fd_sc_hd__clkbuf_1
*CAP
1 a[2] 0.000597755
2 *562:A 0.000597755
3 *562:A *494:A_N 1.02504e-05
4 *562:A *494:B 1.33343e-05
5 *562:A *527:A1 5.33005e-05
6 *562:A *585:A 0
7 *562:A *600:A 6.75704e-05
8 *562:A *604:A 0
9 *562:A *236:8 0.000195998
*RES
1 a[2] *562:A 25.6929 
*END

*D_NET *26 0.000833663
*CONN
*P a[30] I
*I *563:A I *D sky130_fd_sc_hd__buf_1
*CAP
1 a[30] 0.000308768
2 *563:A 0.000308768
3 *563:A *596:A 5.17882e-05
4 *563:A *199:8 9.60337e-06
5 *563:A *232:8 2.06178e-05
6 *561:A *563:A 0.000134117
*RES
1 a[30] *563:A 19.4503 
*END

*D_NET *27 0.00272918
*CONN
*P a[31] I
*I *564:A I *D sky130_fd_sc_hd__clkbuf_1
*CAP
1 a[31] 0.00100052
2 *564:A 0.00100052
3 *564:A *601:A 0
4 *560:A *564:A 0.00022263
5 *561:A *564:A 0.000192445
6 *610:A *564:A 0.000313073
*RES
1 a[31] *564:A 24.7511 
*END

*D_NET *28 0.00258019
*CONN
*P a[3] I
*I *565:A I *D sky130_fd_sc_hd__clkbuf_1
*CAP
1 a[3] 0.000877967
2 *565:A 0.000877967
3 *565:A *497:A_N 0.00010096
4 *565:A *497:B 0
5 *565:A *528:A1 0
6 *565:A *528:A2 4.57445e-05
7 *565:A *573:A 0
8 *565:A *597:A 0
9 *565:A *238:10 0
10 *547:A *565:A 0.00066699
11 *602:A *565:A 1.0562e-05
*RES
1 a[3] *565:A 33.9786 
*END

*D_NET *29 0.000958638
*CONN
*P a[4] I
*I *566:A I *D sky130_fd_sc_hd__clkbuf_1
*CAP
1 a[4] 0.000479319
2 *566:A 0.000479319
3 *566:A *603:A 0
4 *560:A *566:A 0
*RES
1 a[4] *566:A 22.5679 
*END

*D_NET *30 0.00124118
*CONN
*P a[5] I
*I *567:A I *D sky130_fd_sc_hd__clkbuf_1
*CAP
1 a[5] 0.000587071
2 *567:A 0.000587071
3 *567:A *448:A 6.09899e-05
4 *567:A *601:A 0
5 *567:A *603:A 0
6 *567:A *239:10 6.05161e-06
7 *560:A *567:A 0
8 *561:A *567:A 0
*RES
1 a[5] *567:A 24.7286 
*END

*D_NET *31 0.00090534
*CONN
*P a[6] I
*I *568:A I *D sky130_fd_sc_hd__clkbuf_1
*CAP
1 a[6] 0.00045267
2 *568:A 0.00045267
3 *568:A *573:A 0
4 *568:A *604:A 0
5 *568:A *605:A 0
6 *550:A *568:A 0
*RES
1 a[6] *568:A 22.5679 
*END

*D_NET *32 0.00145381
*CONN
*P a[7] I
*I *570:A I *D sky130_fd_sc_hd__clkbuf_1
*CAP
1 a[7] 0.000641565
2 *570:A 0.000641565
3 *570:A *491:A_N 9.81124e-06
4 *570:A *491:B 0.000109007
5 *570:A *605:A 4.81734e-05
6 *570:A *241:8 3.69047e-06
7 *610:A *570:A 0
*RES
1 a[7] *570:A 25.4071 
*END

*D_NET *33 0.0029305
*CONN
*P a[8] I
*I *571:A I *D sky130_fd_sc_hd__clkbuf_1
*CAP
1 a[8] 0.000943275
2 *571:A 0.000943275
3 *571:A *447:A 9.41642e-05
4 *571:A *517:A_N 0
5 *571:A *518:D 4.74421e-05
6 *571:A *520:B1 0
7 *571:A *575:A 0.000160643
8 *571:A *576:A 0.000231807
9 *571:A *587:A 0.000162665
10 *571:A *606:A 5.65933e-05
11 *571:A *117:12 7.14672e-05
12 *571:A *164:14 9.91086e-05
13 *571:A *212:18 1.40034e-05
14 *571:A *242:12 3.69047e-06
15 *569:A *571:A 0
16 *580:A *571:A 0.000102367
*RES
1 a[8] *571:A 27.9009 
*END

*D_NET *34 0.000425875
*CONN
*P a[9] I
*I *572:A I *D sky130_fd_sc_hd__clkbuf_1
*CAP
1 a[9] 0.000177058
2 *572:A 0.000177058
3 *572:A *445:A 0
4 *572:A *577:A 3.45929e-05
5 *572:A *607:A 3.71658e-05
6 *558:A *572:A 0
*RES
1 a[9] *572:A 19.5304 
*END

*D_NET *35 0.00445417
*CONN
*P b[0] I
*I *573:A I *D sky130_fd_sc_hd__clkbuf_1
*CAP
1 b[0] 0.0016358
2 *573:A 0.0016358
3 *573:A *495:B 0
4 *573:A *579:A 0.000199167
5 *573:A *585:A 0.000411322
6 *573:A *604:A 0.000119458
7 *573:A *99:12 2.79092e-05
8 *573:A *186:14 9.24395e-05
9 *573:A *201:12 0.000229456
10 *573:A *204:14 8.00806e-05
11 *573:A *215:10 2.27416e-05
12 *565:A *573:A 0
13 *568:A *573:A 0
*RES
1 b[0] *573:A 38.9264 
*END

*D_NET *36 0.00193408
*CONN
*P b[10] I
*I *574:A I *D sky130_fd_sc_hd__clkbuf_1
*CAP
1 b[10] 0.00067737
2 *574:A 0.00067737
3 *574:A *517:A_N 7.1948e-05
4 *574:A *517:B 0.000223729
5 *574:A *518:D 0
6 *574:A *533:B1 0
7 *574:A *587:A 0
8 *574:A *118:10 0.00014183
9 *574:A *164:14 0.00014183
10 *569:A *574:A 0
*RES
1 b[10] *574:A 26.7464 
*END

*D_NET *37 0.0019194
*CONN
*P b[11] I
*I *575:A I *D sky130_fd_sc_hd__clkbuf_1
*CAP
1 b[11] 0.000541309
2 *575:A 0.000541309
3 *575:A *513:A_N 5.7661e-06
4 *575:A *516:A_N 6.57914e-05
5 *575:A *117:12 9.60939e-05
6 *575:A *205:8 2.87555e-06
7 *575:A *211:12 8.79992e-05
8 *552:A *575:A 0
9 *569:A *575:A 1.80376e-05
10 *571:A *575:A 0.000160643
11 *580:A *575:A 0.000399574
*RES
1 b[11] *575:A 27.1571 
*END

*D_NET *38 0.00280766
*CONN
*P b[12] I
*I *576:A I *D sky130_fd_sc_hd__buf_1
*CAP
1 b[12] 0.000866378
2 *576:A 0.000866378
3 *576:A *478:B2 0
4 *576:A *584:A 0
5 *576:A *587:A 0
6 *576:A *120:12 9.9455e-05
7 *576:A *188:12 6.76421e-05
8 *576:A *220:28 8.30773e-05
9 *552:A *576:A 0.00014875
10 *571:A *576:A 0.000231807
11 *580:A *576:A 0.000444168
*RES
1 b[12] *576:A 30.3505 
*END

*D_NET *39 0.000557324
*CONN
*P b[13] I
*I *577:A I *D sky130_fd_sc_hd__buf_1
*CAP
1 b[13] 0.000244069
2 *577:A 0.000244069
3 *577:A *213:8 0
4 *572:A *577:A 3.45929e-05
5 *591:A *577:A 3.45929e-05
*RES
1 b[13] *577:A 20.5661 
*END

*D_NET *40 0.000559525
*CONN
*P b[14] I
*I *578:A I *D sky130_fd_sc_hd__clkbuf_1
*CAP
1 b[14] 0.000150552
2 *578:A 0.000150552
3 *578:A *238:10 0
4 *547:A *578:A 0.000186662
5 *602:A *578:A 3.45929e-05
6 *608:A *578:A 3.71658e-05
*RES
1 b[14] *578:A 19.5304 
*END

*D_NET *41 0.00388322
*CONN
*P b[15] I
*I *579:A I *D sky130_fd_sc_hd__clkbuf_1
*CAP
1 b[15] 0.00176758
2 *579:A 0.00176758
3 *579:A *529:A4 2.06112e-05
4 *579:A *585:A 0
5 *579:A *201:12 9.22845e-05
6 *579:A *221:10 0
7 *547:A *579:A 2.48791e-05
8 *550:A *579:A 1.11192e-05
9 *573:A *579:A 0.000199167
*RES
1 b[15] *579:A 30.9807 
*END

*D_NET *42 0.00107054
*CONN
*P b[16] I
*I *581:A I *D sky130_fd_sc_hd__clkbuf_1
*CAP
1 b[16] 0.000360265
2 *581:A 0.000360265
3 *581:A *582:A 0.000119009
4 *581:A *235:10 9.82779e-05
5 *609:A *581:A 0.000132722
*RES
1 b[16] *581:A 20.6803 
*END

*D_NET *43 0.000757035
*CONN
*P b[17] I
*I *582:A I *D sky130_fd_sc_hd__clkbuf_1
*CAP
1 b[17] 0.000281109
2 *582:A 0.000281109
3 *582:A *457:B 2.06112e-05
4 *582:A *595:A 3.45861e-05
5 *582:A *598:A 0
6 *582:A *231:10 2.06112e-05
7 *582:A *235:21 0
8 *581:A *582:A 0.000119009
*RES
1 b[17] *582:A 18.9462 
*END

*D_NET *44 0.000495978
*CONN
*P b[18] I
*I *583:A I *D sky130_fd_sc_hd__clkbuf_1
*CAP
1 b[18] 0.000209869
2 *583:A 0.000209869
3 *583:A *441:A 5.7661e-06
4 *583:A *113:16 0
5 *548:A *583:A 3.45929e-05
6 *549:A *583:A 3.58816e-05
*RES
1 b[18] *583:A 19.9589 
*END

*D_NET *45 0.00408978
*CONN
*P b[19] I
*I *584:A I *D sky130_fd_sc_hd__buf_1
*CAP
1 b[19] 0.00139526
2 *584:A 0.00139526
3 *584:A *438:A 0.000139625
4 *584:A *439:A 3.69047e-06
5 *584:A *546:CLK 0.000611154
6 *584:A *586:A 0.000236237
7 *584:A *220:28 5.28345e-05
8 *576:A *584:A 0
9 *580:A *584:A 0.000255726
*RES
1 b[19] *584:A 33.436 
*END

*D_NET *46 0.00344115
*CONN
*P b[1] I
*I *585:A I *D sky130_fd_sc_hd__clkbuf_1
*CAP
1 b[1] 0.00117337
2 *585:A 0.00117337
3 *585:A *494:A_N 0
4 *585:A *495:B 0.000241198
5 *585:A *499:A_N 6.65398e-05
6 *585:A *527:B1 0
7 *585:A *529:A1 2.64167e-05
8 *585:A *604:A 2.28904e-05
9 *585:A *98:8 7.03586e-05
10 *585:A *186:14 0
11 *585:A *201:12 0
12 *585:A *240:14 4.15914e-05
13 *550:A *585:A 0.000214104
14 *562:A *585:A 0
15 *573:A *585:A 0.000411322
16 *579:A *585:A 0
*RES
1 b[1] *585:A 30.2797 
*END

*D_NET *47 0.000856592
*CONN
*P b[20] I
*I *586:A I *D sky130_fd_sc_hd__clkbuf_1
*CAP
1 b[20] 0.000310177
2 *586:A 0.000310177
3 *551:A *586:A 0
4 *584:A *586:A 0.000236237
*RES
1 b[20] *586:A 21.8357 
*END

*D_NET *48 0.00611822
*CONN
*P b[21] I
*I *587:A I *D sky130_fd_sc_hd__clkbuf_1
*CAP
1 b[21] 0.00240801
2 *587:A 0.00240801
3 *587:A *445:A 0
4 *587:A *471:B 0.000195752
5 *587:A *473:A 1.21309e-05
6 *587:A *477:D 0.000110779
7 *587:A *517:B 0
8 *587:A *536:A2 0
9 *587:A *606:A 9.75741e-06
10 *587:A *220:28 0.000811108
11 *587:A *225:10 0
12 *558:A *587:A 0
13 *571:A *587:A 0.000162665
14 *574:A *587:A 0
15 *576:A *587:A 0
*RES
1 b[21] *587:A 36.359 
*END

*D_NET *49 0.000824322
*CONN
*P b[22] I
*I *588:A I *D sky130_fd_sc_hd__clkbuf_1
*CAP
1 b[22] 0.000412161
2 *588:A 0.000412161
3 *588:A *590:A 0
4 *554:A *588:A 0
5 *557:A *588:A 0
*RES
1 b[22] *588:A 21.8357 
*END

*D_NET *50 0.000976116
*CONN
*P b[23] I
*I *589:A I *D sky130_fd_sc_hd__clkbuf_1
*CAP
1 b[23] 0.000486316
2 *589:A 0.000486316
3 *589:A *473:A 3.4846e-06
4 *589:A *542:B2 0
5 *589:A *546:CLK 0
6 *554:A *589:A 0
*RES
1 b[23] *589:A 22.2464 
*END

*D_NET *51 0.00100426
*CONN
*P b[24] I
*I *590:A I *D sky130_fd_sc_hd__clkbuf_1
*CAP
1 b[24] 0.000433249
2 *590:A 0.000433249
3 *590:A *468:B1 9.30603e-06
4 *590:A *469:B 2.95726e-05
5 *590:A *192:12 3.17163e-05
6 *590:A *226:6 7.43578e-06
7 *556:A *590:A 0
8 *557:A *590:A 5.9734e-05
9 *588:A *590:A 0
*RES
1 b[24] *590:A 22.7821 
*END

*D_NET *52 0.00282255
*CONN
*P b[25] I
*I *592:A I *D sky130_fd_sc_hd__clkbuf_1
*CAP
1 b[25] 0.00129448
2 *592:A 0.00129448
3 *592:A *460:A_N 5.71472e-05
4 *592:A *464:A2 0.000143834
5 *592:A *469:A 3.69047e-06
6 *592:A *177:12 2.89114e-05
7 *592:A *229:8 0
8 *553:A *592:A 0
9 *555:A *592:A 0
*RES
1 b[25] *592:A 39.0321 
*END

*D_NET *53 0.000740976
*CONN
*P b[26] I
*I *593:A I *D sky130_fd_sc_hd__clkbuf_1
*CAP
1 b[26] 0.000208756
2 *593:A 0.000208756
3 *593:A z 7.20621e-05
4 *593:A *437:A 0
5 *593:A *229:8 3.15196e-05
6 *555:A *593:A 0.000140379
7 *556:A *593:A 0
8 *557:A *593:A 7.95028e-05
*RES
1 b[26] *593:A 19.6407 
*END

*D_NET *54 0.00057437
*CONN
*P b[27] I
*I *594:A I *D sky130_fd_sc_hd__clkbuf_1
*CAP
1 b[27] 0.000186749
2 *594:A 0.000186749
3 *594:A z 0
4 *594:A *460:A_N 3.49674e-05
5 *594:A *599:A 8.00391e-05
6 *559:A *594:A 8.58651e-05
*RES
1 b[27] *594:A 19.0336 
*END

*D_NET *55 0.000867595
*CONN
*P b[28] I
*I *595:A I *D sky130_fd_sc_hd__clkbuf_1
*CAP
1 b[28] 0.000399211
2 *595:A 0.000399211
3 *595:A *598:A 3.45861e-05
4 *595:A *149:14 0
5 *595:A *231:10 0
6 *582:A *595:A 3.45861e-05
*RES
1 b[28] *595:A 23.5839 
*END

*D_NET *56 0.00100192
*CONN
*P b[29] I
*I *596:A I *D sky130_fd_sc_hd__clkbuf_1
*CAP
1 b[29] 0.000352965
2 *596:A 0.000352965
3 *596:A *598:A 8.3155e-05
4 *596:A *232:8 0.000161042
5 *563:A *596:A 5.17882e-05
*RES
1 b[29] *596:A 22.6764 
*END

*D_NET *57 0.00215644
*CONN
*P b[2] I
*I *597:A I *D sky130_fd_sc_hd__buf_1
*CAP
1 b[2] 0.000771174
2 *597:A 0.000771174
3 *597:A *450:A 0
4 *597:A *497:B 0.000391426
5 *597:A *498:A_N 4.62869e-05
6 *597:A *498:B 2.99356e-05
7 *597:A *528:A1 0.000103514
8 *597:A *528:A2 3.68802e-05
9 *597:A *600:A 0
10 *597:A *238:10 6.05161e-06
11 *565:A *597:A 0
*RES
1 b[2] *597:A 30.4607 
*END

*D_NET *58 0.000662239
*CONN
*P b[30] I
*I *598:A I *D sky130_fd_sc_hd__clkbuf_1
*CAP
1 b[30] 0.000235791
2 *598:A 0.000235791
3 *598:A *455:C1 4.15914e-05
4 *598:A *234:12 3.13234e-05
5 *582:A *598:A 0
6 *595:A *598:A 3.45861e-05
7 *596:A *598:A 8.3155e-05
*RES
1 b[30] *598:A 19.9443 
*END

*D_NET *59 0.000518857
*CONN
*P b[31] I
*I *599:A I *D sky130_fd_sc_hd__buf_1
*CAP
1 b[31] 0.000208111
2 *599:A 0.000208111
3 *594:A *599:A 8.00391e-05
4 *609:A *599:A 2.25951e-05
*RES
1 b[31] *599:A 18.73 
*END

*D_NET *60 0.00116751
*CONN
*P b[3] I
*I *600:A I *D sky130_fd_sc_hd__clkbuf_1
*CAP
1 b[3] 0.000535685
2 *600:A 0.000535685
3 *600:A *494:A_N 4.1331e-06
4 *600:A *236:8 2.44318e-05
5 *562:A *600:A 6.75704e-05
6 *597:A *600:A 0
*RES
1 b[3] *600:A 23.925 
*END

*D_NET *61 0.00104575
*CONN
*P b[4] I
*I *601:A I *D sky130_fd_sc_hd__clkbuf_1
*CAP
1 b[4] 0.000513719
2 *601:A 0.000513719
3 *601:A *432:A 1.83169e-05
4 *564:A *601:A 0
5 *567:A *601:A 0
6 *610:A *601:A 0
*RES
1 b[4] *601:A 23.3893 
*END

*D_NET *62 0.00108035
*CONN
*P b[5] I
*I *603:A I *D sky130_fd_sc_hd__clkbuf_1
*CAP
1 b[5] 0.000355443
2 *603:A 0.000355443
3 *603:A *448:A 0
4 *560:A *603:A 0.000369463
5 *566:A *603:A 0
6 *567:A *603:A 0
*RES
1 b[5] *603:A 22.5679 
*END

*D_NET *63 0.00107461
*CONN
*P b[6] I
*I *604:A I *D sky130_fd_sc_hd__clkbuf_1
*CAP
1 b[6] 0.000422038
2 *604:A 0.000422038
3 *604:A *494:B 0
4 *550:A *604:A 8.81884e-05
5 *562:A *604:A 0
6 *568:A *604:A 0
7 *573:A *604:A 0.000119458
8 *585:A *604:A 2.28904e-05
*RES
1 b[6] *604:A 23.3893 
*END

*D_NET *64 0.00107002
*CONN
*P b[7] I
*I *605:A I *D sky130_fd_sc_hd__clkbuf_1
*CAP
1 b[7] 0.000505159
2 *605:A 0.000505159
3 *605:A *241:8 1.15281e-05
4 *568:A *605:A 0
5 *570:A *605:A 4.81734e-05
*RES
1 b[7] *605:A 23.5143 
*END

*D_NET *65 0.00106897
*CONN
*P b[8] I
*I *606:A I *D sky130_fd_sc_hd__buf_1
*CAP
1 b[8] 0.000395598
2 *606:A 0.000395598
3 *606:A *517:B 0
4 *606:A *607:A 0.000138126
5 *606:A *194:10 0
6 *558:A *606:A 7.32955e-05
7 *571:A *606:A 5.65933e-05
8 *587:A *606:A 9.75741e-06
*RES
1 b[8] *606:A 23.3709 
*END

*D_NET *66 0.000667891
*CONN
*P b[9] I
*I *607:A I *D sky130_fd_sc_hd__buf_1
*CAP
1 b[9] 0.000152969
2 *607:A 0.000152969
3 *558:A *607:A 0.000186662
4 *572:A *607:A 3.71658e-05
5 *606:A *607:A 0.000138126
*RES
1 b[9] *607:A 19.5304 
*END

*D_NET *67 0.00293738
*CONN
*P clk I
*I *546:CLK I *D sky130_fd_sc_hd__dfxtp_1
*CAP
1 clk 0.000951307
2 *546:CLK 0.000951307
3 *546:CLK *439:A 0.000121239
4 *546:CLK *479:A 0
5 *546:CLK *480:C 1.50181e-05
6 *546:CLK *546:D 4.95192e-05
7 *546:CLK *79:18 7.50601e-05
8 *546:CLK *81:16 6.88866e-05
9 *546:CLK *220:28 9.57722e-06
10 *546:CLK *225:10 8.43117e-05
11 *584:A *546:CLK 0.000611154
12 *589:A *546:CLK 0
*RES
1 clk *546:CLK 36.5143 
*END

*D_NET *68 0.00080267
*CONN
*P z O
*I *611:X O *D sky130_fd_sc_hd__buf_2
*CAP
1 z 0.000253808
2 *611:X 0.000253808
3 z *229:8 0.000113056
4 *555:A z 5.64584e-05
5 *557:A z 0
6 *559:A z 5.34774e-05
7 *593:A z 7.20621e-05
8 *594:A z 0
*RES
1 *611:X z 19.4092 
*END

*D_NET *69 0.000847791
*CONN
*I *546:D I *D sky130_fd_sc_hd__dfxtp_1
*I *545:X O *D sky130_fd_sc_hd__o31a_1
*CAP
1 *546:D 0.000367424
2 *545:X 0.000367424
3 *546:D *84:16 6.34248e-05
4 *546:CLK *546:D 4.95192e-05
*RES
1 *545:X *546:D 33.4616 
*END
