*SPEF "ieee 1481-1999"
*DESIGN "comp32"
*DATE "16:58:39 Thursday May 09, 2024"
*VENDOR "The OpenROAD Project"
*PROGRAM "OpenROAD"
*VERSION "d423155d69de7f683a23f6916ead418a615ad4ad"
*DESIGN_FLOW "NAME_SCOPE LOCAL" "PIN_CAP NONE"
*DIVIDER /
*DELIMITER :
*BUS_DELIMITER []
*T_UNIT 1 NS
*C_UNIT 1 PF
*R_UNIT 1 OHM
*L_UNIT 1 HENRY

*NAME_MAP
*1 a[0]
*2 a[10]
*3 a[11]
*4 a[12]
*5 a[13]
*6 a[14]
*7 a[15]
*8 a[16]
*9 a[17]
*10 a[18]
*11 a[19]
*12 a[1]
*13 a[20]
*14 a[21]
*15 a[22]
*16 a[23]
*17 a[24]
*18 a[25]
*19 a[26]
*20 a[27]
*21 a[28]
*22 a[29]
*23 a[2]
*24 a[30]
*25 a[31]
*26 a[3]
*27 a[4]
*28 a[5]
*29 a[6]
*30 a[7]
*31 a[8]
*32 a[9]
*33 b[0]
*34 b[10]
*35 b[11]
*36 b[12]
*37 b[13]
*38 b[14]
*39 b[15]
*40 b[16]
*41 b[17]
*42 b[18]
*43 b[19]
*44 b[1]
*45 b[20]
*46 b[21]
*47 b[22]
*48 b[23]
*49 b[24]
*50 b[25]
*51 b[26]
*52 b[27]
*53 b[28]
*54 b[29]
*55 b[2]
*56 b[30]
*57 b[31]
*58 b[3]
*59 b[4]
*60 b[5]
*61 b[6]
*62 b[7]
*63 b[8]
*64 b[9]
*65 clk
*68 z
*69 _000_
*70 _001_
*71 _002_
*72 _003_
*73 _004_
*74 _005_
*75 _006_
*76 _007_
*77 _008_
*78 _009_
*79 _010_
*80 _011_
*81 _012_
*82 _013_
*83 _014_
*84 _015_
*85 _016_
*86 _017_
*87 _018_
*88 _019_
*89 _020_
*90 _021_
*91 _022_
*92 _023_
*93 _024_
*94 _025_
*95 _026_
*96 _027_
*97 _028_
*98 _029_
*99 _030_
*100 _031_
*101 _032_
*102 _033_
*103 _034_
*104 _035_
*105 _036_
*106 _037_
*107 _038_
*108 _039_
*109 _040_
*110 _041_
*111 _042_
*112 _043_
*113 _044_
*114 _045_
*115 _046_
*116 _047_
*117 _048_
*118 _049_
*119 _050_
*120 _051_
*121 _052_
*122 _053_
*123 _054_
*124 _055_
*125 _056_
*126 _057_
*127 _058_
*128 _059_
*129 _060_
*130 _061_
*131 _062_
*132 _063_
*133 _064_
*134 _065_
*135 _066_
*136 _067_
*137 _068_
*138 _069_
*139 _070_
*140 _071_
*141 _072_
*142 _073_
*143 _074_
*144 _075_
*145 _076_
*146 _077_
*147 _078_
*148 _079_
*149 _080_
*150 _081_
*151 _082_
*152 _083_
*153 _084_
*154 _085_
*155 _086_
*156 _087_
*157 _088_
*158 _089_
*159 _090_
*160 _091_
*161 _092_
*162 _093_
*163 _094_
*164 _095_
*165 _096_
*166 _097_
*167 _098_
*168 _099_
*169 _100_
*170 _101_
*171 _102_
*172 _103_
*173 _104_
*174 _105_
*175 _106_
*176 _107_
*177 _108_
*178 _109_
*179 _110_
*180 _111_
*181 _112_
*182 _113_
*183 net1
*184 net10
*185 net11
*186 net12
*187 net13
*188 net14
*189 net15
*190 net16
*191 net17
*192 net18
*193 net19
*194 net2
*195 net20
*196 net21
*197 net22
*198 net23
*199 net24
*200 net25
*201 net26
*202 net27
*203 net28
*204 net29
*205 net3
*206 net30
*207 net31
*208 net32
*209 net33
*210 net34
*211 net35
*212 net36
*213 net37
*214 net38
*215 net39
*216 net4
*217 net40
*218 net41
*219 net42
*220 net43
*221 net44
*222 net45
*223 net46
*224 net47
*225 net48
*226 net49
*227 net5
*228 net50
*229 net51
*230 net52
*231 net53
*232 net54
*233 net55
*234 net56
*235 net57
*236 net58
*237 net59
*238 net6
*239 net60
*240 net61
*241 net62
*242 net63
*243 net64
*244 net65
*245 net7
*246 net8
*247 net9
*248 ANTENNA_1
*249 FILLER_0_0_102
*250 FILLER_0_0_107
*251 FILLER_0_0_113
*252 FILLER_0_0_117
*253 FILLER_0_0_12
*254 FILLER_0_0_122
*255 FILLER_0_0_127
*256 FILLER_0_0_132
*257 FILLER_0_0_137
*258 FILLER_0_0_147
*259 FILLER_0_0_152
*260 FILLER_0_0_157
*261 FILLER_0_0_162
*262 FILLER_0_0_167
*263 FILLER_0_0_169
*264 FILLER_0_0_17
*265 FILLER_0_0_22
*266 FILLER_0_0_27
*267 FILLER_0_0_3
*268 FILLER_0_0_32
*269 FILLER_0_0_51
*270 FILLER_0_0_57
*271 FILLER_0_0_62
*272 FILLER_0_0_67
*273 FILLER_0_0_72
*274 FILLER_0_0_77
*275 FILLER_0_0_93
*276 FILLER_0_0_97
*277 FILLER_0_10_106
*278 FILLER_0_10_118
*279 FILLER_0_10_130
*280 FILLER_0_10_15
*281 FILLER_0_10_156
*282 FILLER_0_10_168
*283 FILLER_0_10_27
*284 FILLER_0_10_3
*285 FILLER_0_10_52
*286 FILLER_0_10_64
*287 FILLER_0_10_76
*288 FILLER_0_10_85
*289 FILLER_0_11_104
*290 FILLER_0_11_110
*291 FILLER_0_11_121
*292 FILLER_0_11_133
*293 FILLER_0_11_139
*294 FILLER_0_11_146
*295 FILLER_0_11_15
*296 FILLER_0_11_158
*297 FILLER_0_11_166
*298 FILLER_0_11_169
*299 FILLER_0_11_27
*300 FILLER_0_11_3
*301 FILLER_0_11_39
*302 FILLER_0_11_46
*303 FILLER_0_11_54
*304 FILLER_0_11_57
*305 FILLER_0_11_69
*306 FILLER_0_11_81
*307 FILLER_0_11_93
*308 FILLER_0_12_109
*309 FILLER_0_12_11
*310 FILLER_0_12_121
*311 FILLER_0_12_133
*312 FILLER_0_12_139
*313 FILLER_0_12_141
*314 FILLER_0_12_155
*315 FILLER_0_12_167
*316 FILLER_0_12_17
*317 FILLER_0_12_25
*318 FILLER_0_12_29
*319 FILLER_0_12_3
*320 FILLER_0_12_41
*321 FILLER_0_12_53
*322 FILLER_0_12_65
*323 FILLER_0_12_77
*324 FILLER_0_12_83
*325 FILLER_0_12_85
*326 FILLER_0_12_97
*327 FILLER_0_13_105
*328 FILLER_0_13_118
*329 FILLER_0_13_130
*330 FILLER_0_13_142
*331 FILLER_0_13_154
*332 FILLER_0_13_166
*333 FILLER_0_13_169
*334 FILLER_0_13_3
*335 FILLER_0_13_30
*336 FILLER_0_13_42
*337 FILLER_0_13_54
*338 FILLER_0_13_57
*339 FILLER_0_13_69
*340 FILLER_0_13_81
*341 FILLER_0_13_93
*342 FILLER_0_14_11
*343 FILLER_0_14_123
*344 FILLER_0_14_135
*345 FILLER_0_14_139
*346 FILLER_0_14_141
*347 FILLER_0_14_153
*348 FILLER_0_14_165
*349 FILLER_0_14_169
*350 FILLER_0_14_26
*351 FILLER_0_14_3
*352 FILLER_0_14_37
*353 FILLER_0_14_49
*354 FILLER_0_14_61
*355 FILLER_0_14_73
*356 FILLER_0_14_81
*357 FILLER_0_14_85
*358 FILLER_0_14_97
*359 FILLER_0_15_105
*360 FILLER_0_15_111
*361 FILLER_0_15_122
*362 FILLER_0_15_134
*363 FILLER_0_15_146
*364 FILLER_0_15_15
*365 FILLER_0_15_164
*366 FILLER_0_15_169
*367 FILLER_0_15_23
*368 FILLER_0_15_3
*369 FILLER_0_15_36
*370 FILLER_0_15_48
*371 FILLER_0_15_57
*372 FILLER_0_15_69
*373 FILLER_0_15_81
*374 FILLER_0_15_93
*375 FILLER_0_16_127
*376 FILLER_0_16_139
*377 FILLER_0_16_141
*378 FILLER_0_16_147
*379 FILLER_0_16_15
*380 FILLER_0_16_163
*381 FILLER_0_16_169
*382 FILLER_0_16_27
*383 FILLER_0_16_29
*384 FILLER_0_16_3
*385 FILLER_0_16_41
*386 FILLER_0_16_53
*387 FILLER_0_16_65
*388 FILLER_0_16_77
*389 FILLER_0_16_83
*390 FILLER_0_16_85
*391 FILLER_0_16_97
*392 FILLER_0_17_105
*393 FILLER_0_17_111
*394 FILLER_0_17_113
*395 FILLER_0_17_125
*396 FILLER_0_17_137
*397 FILLER_0_17_15
*398 FILLER_0_17_164
*399 FILLER_0_17_169
*400 FILLER_0_17_27
*401 FILLER_0_17_3
*402 FILLER_0_17_39
*403 FILLER_0_17_51
*404 FILLER_0_17_55
*405 FILLER_0_17_57
*406 FILLER_0_17_69
*407 FILLER_0_17_81
*408 FILLER_0_17_93
*409 FILLER_0_18_109
*410 FILLER_0_18_121
*411 FILLER_0_18_133
*412 FILLER_0_18_139
*413 FILLER_0_18_141
*414 FILLER_0_18_15
*415 FILLER_0_18_153
*416 FILLER_0_18_160
*417 FILLER_0_18_168
*418 FILLER_0_18_27
*419 FILLER_0_18_29
*420 FILLER_0_18_3
*421 FILLER_0_18_41
*422 FILLER_0_18_53
*423 FILLER_0_18_65
*424 FILLER_0_18_77
*425 FILLER_0_18_83
*426 FILLER_0_18_85
*427 FILLER_0_18_97
*428 FILLER_0_19_105
*429 FILLER_0_19_11
*430 FILLER_0_19_111
*431 FILLER_0_19_113
*432 FILLER_0_19_125
*433 FILLER_0_19_137
*434 FILLER_0_19_149
*435 FILLER_0_19_164
*436 FILLER_0_19_169
*437 FILLER_0_19_17
*438 FILLER_0_19_29
*439 FILLER_0_19_3
*440 FILLER_0_19_41
*441 FILLER_0_19_53
*442 FILLER_0_19_57
*443 FILLER_0_19_69
*444 FILLER_0_19_81
*445 FILLER_0_19_93
*446 FILLER_0_1_102
*447 FILLER_0_1_108
*448 FILLER_0_1_116
*449 FILLER_0_1_128
*450 FILLER_0_1_140
*451 FILLER_0_1_15
*452 FILLER_0_1_152
*453 FILLER_0_1_164
*454 FILLER_0_1_169
*455 FILLER_0_1_27
*456 FILLER_0_1_3
*457 FILLER_0_1_39
*458 FILLER_0_1_53
*459 FILLER_0_1_62
*460 FILLER_0_1_74
*461 FILLER_0_1_95
*462 FILLER_0_20_109
*463 FILLER_0_20_121
*464 FILLER_0_20_133
*465 FILLER_0_20_139
*466 FILLER_0_20_144
*467 FILLER_0_20_15
*468 FILLER_0_20_165
*469 FILLER_0_20_22
*470 FILLER_0_20_29
*471 FILLER_0_20_3
*472 FILLER_0_20_41
*473 FILLER_0_20_53
*474 FILLER_0_20_65
*475 FILLER_0_20_77
*476 FILLER_0_20_83
*477 FILLER_0_20_85
*478 FILLER_0_20_97
*479 FILLER_0_21_105
*480 FILLER_0_21_111
*481 FILLER_0_21_113
*482 FILLER_0_21_117
*483 FILLER_0_21_123
*484 FILLER_0_21_129
*485 FILLER_0_21_135
*486 FILLER_0_21_139
*487 FILLER_0_21_147
*488 FILLER_0_21_15
*489 FILLER_0_21_153
*490 FILLER_0_21_169
*491 FILLER_0_21_21
*492 FILLER_0_21_27
*493 FILLER_0_21_29
*494 FILLER_0_21_33
*495 FILLER_0_21_39
*496 FILLER_0_21_45
*497 FILLER_0_21_51
*498 FILLER_0_21_55
*499 FILLER_0_21_63
*500 FILLER_0_21_69
*501 FILLER_0_21_75
*502 FILLER_0_21_81
*503 FILLER_0_21_88
*504 FILLER_0_21_93
*505 FILLER_0_21_99
*506 FILLER_0_2_110
*507 FILLER_0_2_122
*508 FILLER_0_2_134
*509 FILLER_0_2_141
*510 FILLER_0_2_15
*511 FILLER_0_2_153
*512 FILLER_0_2_165
*513 FILLER_0_2_169
*514 FILLER_0_2_27
*515 FILLER_0_2_29
*516 FILLER_0_2_3
*517 FILLER_0_2_41
*518 FILLER_0_2_57
*519 FILLER_0_2_69
*520 FILLER_0_2_81
*521 FILLER_0_2_98
*522 FILLER_0_3_105
*523 FILLER_0_3_111
*524 FILLER_0_3_113
*525 FILLER_0_3_125
*526 FILLER_0_3_137
*527 FILLER_0_3_149
*528 FILLER_0_3_15
*529 FILLER_0_3_161
*530 FILLER_0_3_169
*531 FILLER_0_3_27
*532 FILLER_0_3_3
*533 FILLER_0_3_39
*534 FILLER_0_3_51
*535 FILLER_0_3_55
*536 FILLER_0_3_57
*537 FILLER_0_3_69
*538 FILLER_0_3_81
*539 FILLER_0_3_93
*540 FILLER_0_4_111
*541 FILLER_0_4_123
*542 FILLER_0_4_135
*543 FILLER_0_4_139
*544 FILLER_0_4_141
*545 FILLER_0_4_15
*546 FILLER_0_4_153
*547 FILLER_0_4_165
*548 FILLER_0_4_169
*549 FILLER_0_4_27
*550 FILLER_0_4_29
*551 FILLER_0_4_3
*552 FILLER_0_4_41
*553 FILLER_0_4_50
*554 FILLER_0_4_62
*555 FILLER_0_4_74
*556 FILLER_0_4_82
*557 FILLER_0_4_85
*558 FILLER_0_4_97
*559 FILLER_0_5_100
*560 FILLER_0_5_113
*561 FILLER_0_5_125
*562 FILLER_0_5_137
*563 FILLER_0_5_149
*564 FILLER_0_5_15
*565 FILLER_0_5_161
*566 FILLER_0_5_167
*567 FILLER_0_5_169
*568 FILLER_0_5_27
*569 FILLER_0_5_3
*570 FILLER_0_5_55
*571 FILLER_0_5_57
*572 FILLER_0_5_69
*573 FILLER_0_5_88
*574 FILLER_0_6_105
*575 FILLER_0_6_123
*576 FILLER_0_6_135
*577 FILLER_0_6_139
*578 FILLER_0_6_15
*579 FILLER_0_6_158
*580 FILLER_0_6_27
*581 FILLER_0_6_29
*582 FILLER_0_6_3
*583 FILLER_0_6_37
*584 FILLER_0_6_46
*585 FILLER_0_6_55
*586 FILLER_0_6_67
*587 FILLER_0_6_85
*588 FILLER_0_6_97
*589 FILLER_0_7_105
*590 FILLER_0_7_111
*591 FILLER_0_7_120
*592 FILLER_0_7_132
*593 FILLER_0_7_15
*594 FILLER_0_7_159
*595 FILLER_0_7_167
*596 FILLER_0_7_169
*597 FILLER_0_7_22
*598 FILLER_0_7_3
*599 FILLER_0_7_34
*600 FILLER_0_7_43
*601 FILLER_0_7_48
*602 FILLER_0_7_57
*603 FILLER_0_7_69
*604 FILLER_0_7_81
*605 FILLER_0_7_93
*606 FILLER_0_8_100
*607 FILLER_0_8_111
*608 FILLER_0_8_123
*609 FILLER_0_8_135
*610 FILLER_0_8_139
*611 FILLER_0_8_141
*612 FILLER_0_8_152
*613 FILLER_0_8_164
*614 FILLER_0_8_26
*615 FILLER_0_8_29
*616 FILLER_0_8_3
*617 FILLER_0_8_41
*618 FILLER_0_8_53
*619 FILLER_0_8_61
*620 FILLER_0_8_73
*621 FILLER_0_8_81
*622 FILLER_0_8_85
*623 FILLER_0_8_93
*624 FILLER_0_9_113
*625 FILLER_0_9_125
*626 FILLER_0_9_137
*627 FILLER_0_9_153
*628 FILLER_0_9_165
*629 FILLER_0_9_169
*630 FILLER_0_9_28
*631 FILLER_0_9_3
*632 FILLER_0_9_40
*633 FILLER_0_9_46
*634 FILLER_0_9_54
*635 FILLER_0_9_57
*636 FILLER_0_9_72
*637 FILLER_0_9_76
*638 FILLER_0_9_88
*639 PHY_EDGE_ROW_0_Left_22
*640 PHY_EDGE_ROW_0_Right_0
*641 PHY_EDGE_ROW_10_Left_32
*642 PHY_EDGE_ROW_10_Right_10
*643 PHY_EDGE_ROW_11_Left_33
*644 PHY_EDGE_ROW_11_Right_11
*645 PHY_EDGE_ROW_12_Left_34
*646 PHY_EDGE_ROW_12_Right_12
*647 PHY_EDGE_ROW_13_Left_35
*648 PHY_EDGE_ROW_13_Right_13
*649 PHY_EDGE_ROW_14_Left_36
*650 PHY_EDGE_ROW_14_Right_14
*651 PHY_EDGE_ROW_15_Left_37
*652 PHY_EDGE_ROW_15_Right_15
*653 PHY_EDGE_ROW_16_Left_38
*654 PHY_EDGE_ROW_16_Right_16
*655 PHY_EDGE_ROW_17_Left_39
*656 PHY_EDGE_ROW_17_Right_17
*657 PHY_EDGE_ROW_18_Left_40
*658 PHY_EDGE_ROW_18_Right_18
*659 PHY_EDGE_ROW_19_Left_41
*660 PHY_EDGE_ROW_19_Right_19
*661 PHY_EDGE_ROW_1_Left_23
*662 PHY_EDGE_ROW_1_Right_1
*663 PHY_EDGE_ROW_20_Left_42
*664 PHY_EDGE_ROW_20_Right_20
*665 PHY_EDGE_ROW_21_Left_43
*666 PHY_EDGE_ROW_21_Right_21
*667 PHY_EDGE_ROW_2_Left_24
*668 PHY_EDGE_ROW_2_Right_2
*669 PHY_EDGE_ROW_3_Left_25
*670 PHY_EDGE_ROW_3_Right_3
*671 PHY_EDGE_ROW_4_Left_26
*672 PHY_EDGE_ROW_4_Right_4
*673 PHY_EDGE_ROW_5_Left_27
*674 PHY_EDGE_ROW_5_Right_5
*675 PHY_EDGE_ROW_6_Left_28
*676 PHY_EDGE_ROW_6_Right_6
*677 PHY_EDGE_ROW_7_Left_29
*678 PHY_EDGE_ROW_7_Right_7
*679 PHY_EDGE_ROW_8_Left_30
*680 PHY_EDGE_ROW_8_Right_8
*681 PHY_EDGE_ROW_9_Left_31
*682 PHY_EDGE_ROW_9_Right_9
*683 TAP_TAPCELL_ROW_0_44
*684 TAP_TAPCELL_ROW_0_45
*685 TAP_TAPCELL_ROW_0_46
*686 TAP_TAPCELL_ROW_0_47
*687 TAP_TAPCELL_ROW_0_48
*688 TAP_TAPCELL_ROW_0_49
*689 TAP_TAPCELL_ROW_10_77
*690 TAP_TAPCELL_ROW_10_78
*691 TAP_TAPCELL_ROW_10_79
*692 TAP_TAPCELL_ROW_11_80
*693 TAP_TAPCELL_ROW_11_81
*694 TAP_TAPCELL_ROW_11_82
*695 TAP_TAPCELL_ROW_12_83
*696 TAP_TAPCELL_ROW_12_84
*697 TAP_TAPCELL_ROW_12_85
*698 TAP_TAPCELL_ROW_13_86
*699 TAP_TAPCELL_ROW_13_87
*700 TAP_TAPCELL_ROW_13_88
*701 TAP_TAPCELL_ROW_14_89
*702 TAP_TAPCELL_ROW_14_90
*703 TAP_TAPCELL_ROW_14_91
*704 TAP_TAPCELL_ROW_15_92
*705 TAP_TAPCELL_ROW_15_93
*706 TAP_TAPCELL_ROW_15_94
*707 TAP_TAPCELL_ROW_16_95
*708 TAP_TAPCELL_ROW_16_96
*709 TAP_TAPCELL_ROW_16_97
*710 TAP_TAPCELL_ROW_17_100
*711 TAP_TAPCELL_ROW_17_98
*712 TAP_TAPCELL_ROW_17_99
*713 TAP_TAPCELL_ROW_18_101
*714 TAP_TAPCELL_ROW_18_102
*715 TAP_TAPCELL_ROW_18_103
*716 TAP_TAPCELL_ROW_19_104
*717 TAP_TAPCELL_ROW_19_105
*718 TAP_TAPCELL_ROW_19_106
*719 TAP_TAPCELL_ROW_1_50
*720 TAP_TAPCELL_ROW_1_51
*721 TAP_TAPCELL_ROW_1_52
*722 TAP_TAPCELL_ROW_20_107
*723 TAP_TAPCELL_ROW_20_108
*724 TAP_TAPCELL_ROW_20_109
*725 TAP_TAPCELL_ROW_21_110
*726 TAP_TAPCELL_ROW_21_111
*727 TAP_TAPCELL_ROW_21_112
*728 TAP_TAPCELL_ROW_21_113
*729 TAP_TAPCELL_ROW_21_114
*730 TAP_TAPCELL_ROW_21_115
*731 TAP_TAPCELL_ROW_2_53
*732 TAP_TAPCELL_ROW_2_54
*733 TAP_TAPCELL_ROW_2_55
*734 TAP_TAPCELL_ROW_3_56
*735 TAP_TAPCELL_ROW_3_57
*736 TAP_TAPCELL_ROW_3_58
*737 TAP_TAPCELL_ROW_4_59
*738 TAP_TAPCELL_ROW_4_60
*739 TAP_TAPCELL_ROW_4_61
*740 TAP_TAPCELL_ROW_5_62
*741 TAP_TAPCELL_ROW_5_63
*742 TAP_TAPCELL_ROW_5_64
*743 TAP_TAPCELL_ROW_6_65
*744 TAP_TAPCELL_ROW_6_66
*745 TAP_TAPCELL_ROW_6_67
*746 TAP_TAPCELL_ROW_7_68
*747 TAP_TAPCELL_ROW_7_69
*748 TAP_TAPCELL_ROW_7_70
*749 TAP_TAPCELL_ROW_8_71
*750 TAP_TAPCELL_ROW_8_72
*751 TAP_TAPCELL_ROW_8_73
*752 TAP_TAPCELL_ROW_9_74
*753 TAP_TAPCELL_ROW_9_75
*754 TAP_TAPCELL_ROW_9_76
*755 _114_
*756 _115_
*757 _116_
*758 _117_
*759 _118_
*760 _119_
*761 _120_
*762 _121_
*763 _122_
*764 _123_
*765 _124_
*766 _125_
*767 _126_
*768 _127_
*769 _128_
*770 _129_
*771 _130_
*772 _131_
*773 _132_
*774 _133_
*775 _134_
*776 _135_
*777 _136_
*778 _137_
*779 _138_
*780 _139_
*781 _140_
*782 _141_
*783 _142_
*784 _143_
*785 _144_
*786 _145_
*787 _146_
*788 _147_
*789 _148_
*790 _149_
*791 _150_
*792 _151_
*793 _152_
*794 _153_
*795 _154_
*796 _155_
*797 _156_
*798 _157_
*799 _158_
*800 _159_
*801 _160_
*802 _161_
*803 _162_
*804 _163_
*805 _164_
*806 _165_
*807 _166_
*808 _167_
*809 _168_
*810 _169_
*811 _170_
*812 _171_
*813 _172_
*814 _173_
*815 _174_
*816 _175_
*817 _176_
*818 _177_
*819 _178_
*820 _179_
*821 _180_
*822 _181_
*823 _182_
*824 _183_
*825 _184_
*826 _185_
*827 _186_
*828 _187_
*829 _188_
*830 _189_
*831 _190_
*832 _191_
*833 _192_
*834 _193_
*835 _194_
*836 _195_
*837 _196_
*838 _197_
*839 _198_
*840 _199_
*841 _200_
*842 _201_
*843 _202_
*844 _203_
*845 _204_
*846 _205_
*847 _206_
*848 _207_
*849 _208_
*850 _209_
*851 _210_
*852 _211_
*853 _212_
*854 _213_
*855 _214_
*856 _215_
*857 _216_
*858 _217_
*859 _218_
*860 _219_
*861 _220_
*862 _221_
*863 _222_
*864 _223_
*865 _224_
*866 _225_
*867 _226_
*868 _227_
*869 _228_
*870 input1
*871 input10
*872 input11
*873 input12
*874 input13
*875 input14
*876 input15
*877 input16
*878 input17
*879 input18
*880 input19
*881 input2
*882 input20
*883 input21
*884 input22
*885 input23
*886 input24
*887 input25
*888 input26
*889 input27
*890 input28
*891 input29
*892 input3
*893 input30
*894 input31
*895 input32
*896 input33
*897 input34
*898 input35
*899 input36
*900 input37
*901 input38
*902 input39
*903 input4
*904 input40
*905 input41
*906 input42
*907 input43
*908 input44
*909 input45
*910 input46
*911 input47
*912 input48
*913 input49
*914 input5
*915 input50
*916 input51
*917 input52
*918 input53
*919 input54
*920 input55
*921 input56
*922 input57
*923 input58
*924 input59
*925 input6
*926 input60
*927 input61
*928 input62
*929 input63
*930 input64
*931 input7
*932 input8
*933 input9
*934 output65

*PORTS
a[0] I
a[10] I
a[11] I
a[12] I
a[13] I
a[14] I
a[15] I
a[16] I
a[17] I
a[18] I
a[19] I
a[1] I
a[20] I
a[21] I
a[22] I
a[23] I
a[24] I
a[25] I
a[26] I
a[27] I
a[28] I
a[29] I
a[2] I
a[30] I
a[31] I
a[3] I
a[4] I
a[5] I
a[6] I
a[7] I
a[8] I
a[9] I
b[0] I
b[10] I
b[11] I
b[12] I
b[13] I
b[14] I
b[15] I
b[16] I
b[17] I
b[18] I
b[19] I
b[1] I
b[20] I
b[21] I
b[22] I
b[23] I
b[24] I
b[25] I
b[26] I
b[27] I
b[28] I
b[29] I
b[2] I
b[30] I
b[31] I
b[3] I
b[4] I
b[5] I
b[6] I
b[7] I
b[8] I
b[9] I
clk I
z O

*D_NET *1 0.00132042
*CONN
*P a[0] I
*I *870:A I *D sky130_fd_sc_hd__clkbuf_1
*CAP
1 a[0] 0.000565918
2 *870:A 0.000565918
3 *870:A *873:A 0.000188586
*RES
1 a[0] *870:A 25.5321 
*END

*D_NET *2 0.00126678
*CONN
*P a[10] I
*I *881:A I *D sky130_fd_sc_hd__buf_1
*CAP
1 a[10] 0.000472559
2 *881:A 0.000472559
3 *881:A *892:A 0
4 *881:A *895:A 0
5 *881:A *194:12 1.88048e-05
6 *881:A *205:10 0.000269428
7 *881:A *205:12 3.34295e-05
*RES
1 a[10] *881:A 23.8893 
*END

*D_NET *3 0.00100544
*CONN
*P a[11] I
*I *892:A I *D sky130_fd_sc_hd__buf_1
*CAP
1 a[11] 0.000487777
2 *892:A 0.000487777
3 *892:A *903:A 0
4 *892:A *194:12 1.65558e-05
5 *892:A *205:10 1.33343e-05
6 *881:A *892:A 0
*RES
1 a[11] *892:A 22.7821 
*END

*D_NET *4 0.000843968
*CONN
*P a[12] I
*I *903:A I *D sky130_fd_sc_hd__buf_1
*CAP
1 a[12] 0.000421984
2 *903:A 0.000421984
3 *903:A *914:A 0
4 *892:A *903:A 0
*RES
1 a[12] *903:A 21.8357 
*END

*D_NET *5 0.000837524
*CONN
*P a[13] I
*I *914:A I *D sky130_fd_sc_hd__buf_1
*CAP
1 a[13] 0.000418762
2 *914:A 0.000418762
3 *914:A *925:A 0
4 *903:A *914:A 0
*RES
1 a[13] *914:A 21.8357 
*END

*D_NET *6 0.000837524
*CONN
*P a[14] I
*I *925:A I *D sky130_fd_sc_hd__buf_1
*CAP
1 a[14] 0.000418762
2 *925:A 0.000418762
3 *925:A *931:A 0
4 *925:A *238:10 0
5 *914:A *925:A 0
*RES
1 a[14] *925:A 21.8357 
*END

*D_NET *7 0.000917492
*CONN
*P a[15] I
*I *931:A I *D sky130_fd_sc_hd__buf_1
*CAP
1 a[15] 0.000429584
2 *931:A 0.000429584
3 *931:A *932:A 0
4 *931:A *238:10 5.83233e-05
5 *925:A *931:A 0
*RES
1 a[15] *931:A 22.2464 
*END

*D_NET *8 0.000843821
*CONN
*P a[16] I
*I *932:A I *D sky130_fd_sc_hd__buf_1
*CAP
1 a[16] 0.000420065
2 *932:A 0.000420065
3 *932:A *933:A 0
4 *932:A *245:8 3.69047e-06
5 *932:A *246:16 0
6 *931:A *932:A 0
*RES
1 a[16] *932:A 21.8357 
*END

*D_NET *9 0.000846651
*CONN
*P a[17] I
*I *933:A I *D sky130_fd_sc_hd__clkbuf_1
*CAP
1 a[17] 0.000407472
2 *933:A 0.000407472
3 *933:A *871:A 0
4 *933:A *246:16 3.17067e-05
5 *932:A *933:A 0
*RES
1 a[17] *933:A 21.8357 
*END

*D_NET *10 0.000837524
*CONN
*P a[18] I
*I *871:A I *D sky130_fd_sc_hd__buf_1
*CAP
1 a[18] 0.000418762
2 *871:A 0.000418762
3 *871:A *872:A 0
4 *933:A *871:A 0
*RES
1 a[18] *871:A 21.8357 
*END

*D_NET *11 0.000842387
*CONN
*P a[19] I
*I *872:A I *D sky130_fd_sc_hd__buf_1
*CAP
1 a[19] 0.000412387
2 *872:A 0.000412387
3 *872:A *874:A 0
4 *872:A *185:16 0
5 *872:A *187:12 1.76135e-05
6 *871:A *872:A 0
*RES
1 a[19] *872:A 21.8357 
*END

*D_NET *12 0.00154798
*CONN
*P a[1] I
*I *873:A I *D sky130_fd_sc_hd__clkbuf_1
*CAP
1 a[1] 0.000542812
2 *873:A 0.000542812
3 *873:A *885:A 5.52302e-05
4 *873:A *183:14 0.000186669
5 *873:A *198:14 3.18676e-05
6 *870:A *873:A 0.000188586
*RES
1 a[1] *873:A 25.6571 
*END

*D_NET *13 0.000983713
*CONN
*P a[20] I
*I *874:A I *D sky130_fd_sc_hd__clkbuf_1
*CAP
1 a[20] 0.000450022
2 *874:A 0.000450022
3 *874:A *875:A 0
4 *874:A *185:16 2.84398e-05
5 *874:A *187:12 5.52302e-05
6 *872:A *874:A 0
*RES
1 a[20] *874:A 22.6571 
*END

*D_NET *14 0.000950553
*CONN
*P a[21] I
*I *875:A I *D sky130_fd_sc_hd__clkbuf_1
*CAP
1 a[21] 0.000475277
2 *875:A 0.000475277
3 *875:A *876:A 0
4 *875:A *189:14 0
5 *874:A *875:A 0
*RES
1 a[21] *875:A 22.6571 
*END

*D_NET *15 0.000957427
*CONN
*P a[22] I
*I *876:A I *D sky130_fd_sc_hd__clkbuf_1
*CAP
1 a[22] 0.000448404
2 *876:A 0.000448404
3 *876:A *877:A 0
4 *876:A *189:14 6.06182e-05
5 *875:A *876:A 0
*RES
1 a[22] *876:A 22.6571 
*END

*D_NET *16 0.000950553
*CONN
*P a[23] I
*I *877:A I *D sky130_fd_sc_hd__clkbuf_1
*CAP
1 a[23] 0.000475277
2 *877:A 0.000475277
3 *877:A *878:A 0
4 *876:A *877:A 0
*RES
1 a[23] *877:A 22.6571 
*END

*D_NET *17 0.000990481
*CONN
*P a[24] I
*I *878:A I *D sky130_fd_sc_hd__clkbuf_1
*CAP
1 a[24] 0.000493395
2 *878:A 0.000493395
3 *878:A *760:A 3.69047e-06
4 *878:A *879:A 0
5 *877:A *878:A 0
*RES
1 a[24] *878:A 23.0679 
*END

*D_NET *18 0.000838406
*CONN
*P a[25] I
*I *879:A I *D sky130_fd_sc_hd__buf_1
*CAP
1 a[25] 0.00041655
2 *879:A 0.00041655
3 *879:A *760:A 5.30637e-06
4 *879:A *880:A 0
5 *879:A *193:10 0
6 *878:A *879:A 0
*RES
1 a[25] *879:A 21.8357 
*END

*D_NET *19 0.000979388
*CONN
*P a[26] I
*I *880:A I *D sky130_fd_sc_hd__buf_1
*CAP
1 a[26] 0.000446076
2 *880:A 0.000446076
3 *880:A *882:A 0
4 *880:A *193:10 8.72347e-05
5 *879:A *880:A 0
*RES
1 a[26] *880:A 22.6571 
*END

*D_NET *20 0.000960668
*CONN
*P a[27] I
*I *882:A I *D sky130_fd_sc_hd__buf_1
*CAP
1 a[27] 0.000450339
2 *882:A 0.000450339
3 *882:A *755:A 3.69047e-06
4 *882:A *883:A 0
5 *882:A *195:8 5.62995e-05
6 *880:A *882:A 0
*RES
1 a[27] *882:A 22.6571 
*END

*D_NET *21 0.00105491
*CONN
*P a[28] I
*I *883:A I *D sky130_fd_sc_hd__clkbuf_1
*CAP
1 a[28] 0.000475127
2 *883:A 0.000475127
3 *883:A *884:A 0
4 *883:A *887:A 0.00010096
5 *883:A *195:14 0
6 *883:A *197:10 3.69047e-06
7 *882:A *883:A 0
*RES
1 a[28] *883:A 22.7821 
*END

*D_NET *22 0.000807303
*CONN
*P a[29] I
*I *884:A I *D sky130_fd_sc_hd__buf_1
*CAP
1 a[29] 0.000375705
2 *884:A 0.000375705
3 *884:A *886:A 0
4 *884:A *195:14 5.58941e-05
5 *883:A *884:A 0
*RES
1 a[29] *884:A 21.3 
*END

*D_NET *23 0.000872037
*CONN
*P a[2] I
*I *885:A I *D sky130_fd_sc_hd__clkbuf_1
*CAP
1 a[2] 0.000408404
2 *885:A 0.000408404
3 *885:A *888:A 0
4 *873:A *885:A 5.52302e-05
*RES
1 a[2] *885:A 21.8357 
*END

*D_NET *24 0.00127006
*CONN
*P a[30] I
*I *886:A I *D sky130_fd_sc_hd__buf_1
*CAP
1 a[30] 0.000635032
2 *886:A 0.000635032
3 *886:A *887:A 0
4 *886:A *195:14 0
5 *884:A *886:A 0
*RES
1 a[30] *886:A 25.8 
*END

*D_NET *25 0.00189315
*CONN
*P a[31] I
*I *887:A I *D sky130_fd_sc_hd__clkbuf_1
*CAP
1 a[31] 0.000776053
2 *887:A 0.000776053
3 *887:A *195:8 0.000228558
4 *887:A *197:10 1.15281e-05
5 *883:A *887:A 0.00010096
6 *886:A *887:A 0
*RES
1 a[31] *887:A 28.9429 
*END

*D_NET *26 0.000926719
*CONN
*P a[3] I
*I *888:A I *D sky130_fd_sc_hd__clkbuf_1
*CAP
1 a[3] 0.000405625
2 *888:A 0.000405625
3 *888:A *889:A 0
4 *888:A *183:14 5.83217e-05
5 *888:A *198:14 5.71472e-05
6 *885:A *888:A 0
*RES
1 a[3] *888:A 21.8357 
*END

*D_NET *27 0.00102674
*CONN
*P a[4] I
*I *889:A I *D sky130_fd_sc_hd__clkbuf_1
*CAP
1 a[4] 0.000424962
2 *889:A 0.000424962
3 *889:A *890:A 0
4 *889:A *183:14 0
5 *889:A *198:14 9.90367e-05
6 *889:A *201:10 7.77751e-05
7 *888:A *889:A 0
*RES
1 a[4] *889:A 22.6571 
*END

*D_NET *28 0.000981706
*CONN
*P a[5] I
*I *890:A I *D sky130_fd_sc_hd__clkbuf_1
*CAP
1 a[5] 0.000432209
2 *890:A 0.000432209
3 *890:A *771:A 2.27416e-05
4 *890:A *891:A 0
5 *890:A *201:10 9.45471e-05
6 *889:A *890:A 0
*RES
1 a[5] *890:A 22.6571 
*END

*D_NET *29 0.000845947
*CONN
*P a[6] I
*I *891:A I *D sky130_fd_sc_hd__clkbuf_1
*CAP
1 a[6] 0.000413105
2 *891:A 0.000413105
3 *891:A *893:A 0
4 *891:A *201:10 1.97381e-05
5 *890:A *891:A 0
*RES
1 a[6] *891:A 21.8357 
*END

*D_NET *30 0.000851146
*CONN
*P a[7] I
*I *893:A I *D sky130_fd_sc_hd__clkbuf_1
*CAP
1 a[7] 0.000425573
2 *893:A 0.000425573
3 *893:A *894:A 0
4 *891:A *893:A 0
*RES
1 a[7] *893:A 21.8357 
*END

*D_NET *31 0.00110919
*CONN
*P a[8] I
*I *894:A I *D sky130_fd_sc_hd__buf_1
*CAP
1 a[8] 0.000497548
2 *894:A 0.000497548
3 *894:A *895:A 0
4 *894:A *206:10 3.69047e-06
5 *894:A *207:10 0.000110398
6 *893:A *894:A 0
*RES
1 a[8] *894:A 23.7286 
*END

*D_NET *32 0.000952703
*CONN
*P a[9] I
*I *895:A I *D sky130_fd_sc_hd__buf_1
*CAP
1 a[9] 0.000476351
2 *895:A 0.000476351
3 *895:A *205:12 0
4 *881:A *895:A 0
5 *894:A *895:A 0
*RES
1 a[9] *895:A 22.6571 
*END

*D_NET *33 0.00084331
*CONN
*P b[0] I
*I *896:A I *D sky130_fd_sc_hd__clkbuf_1
*CAP
1 b[0] 0.000421655
2 *896:A 0.000421655
3 *896:A *908:A 0
*RES
1 b[0] *896:A 21.8357 
*END

*D_NET *34 0.000950711
*CONN
*P b[10] I
*I *897:A I *D sky130_fd_sc_hd__clkbuf_1
*CAP
1 b[10] 0.0004609
2 *897:A 0.0004609
3 *897:A *898:A 0
4 *897:A *930:A 0
5 *897:A *210:8 2.89114e-05
*RES
1 b[10] *897:A 22.6571 
*END

*D_NET *35 0.000941071
*CONN
*P b[11] I
*I *898:A I *D sky130_fd_sc_hd__clkbuf_1
*CAP
1 b[11] 0.000470535
2 *898:A 0.000470535
3 *898:A *899:A 0
4 *897:A *898:A 0
*RES
1 b[11] *898:A 22.6571 
*END

*D_NET *36 0.00084331
*CONN
*P b[12] I
*I *899:A I *D sky130_fd_sc_hd__buf_1
*CAP
1 b[12] 0.000421655
2 *899:A 0.000421655
3 *899:A *900:A 0
4 *898:A *899:A 0
*RES
1 b[12] *899:A 21.8357 
*END

*D_NET *37 0.00084331
*CONN
*P b[13] I
*I *900:A I *D sky130_fd_sc_hd__buf_1
*CAP
1 b[13] 0.000421655
2 *900:A 0.000421655
3 *900:A *901:A 0
4 *899:A *900:A 0
*RES
1 b[13] *900:A 21.8357 
*END

*D_NET *38 0.000764221
*CONN
*P b[14] I
*I *901:A I *D sky130_fd_sc_hd__clkbuf_1
*CAP
1 b[14] 0.00038211
2 *901:A 0.00038211
3 *901:A *828:A_N 0
4 *901:A *902:A 0
5 *900:A *901:A 0
*RES
1 b[14] *901:A 21.3 
*END

*D_NET *39 0.0010339
*CONN
*P b[15] I
*I *902:A I *D sky130_fd_sc_hd__clkbuf_1
*CAP
1 b[15] 0.000426399
2 *902:A 0.000426399
3 *902:A *828:A_N 8.50152e-05
4 *902:A *828:B 9.60875e-05
5 *902:A *904:A 0
6 *901:A *902:A 0
*RES
1 b[15] *902:A 22.2464 
*END

*D_NET *40 0.000914361
*CONN
*P b[16] I
*I *904:A I *D sky130_fd_sc_hd__clkbuf_1
*CAP
1 b[16] 0.000434007
2 *904:A 0.000434007
3 *904:A *905:A 0
4 *904:A *109:14 2.89114e-05
5 *904:A *215:12 1.74352e-05
6 *902:A *904:A 0
*RES
1 b[16] *904:A 22.2464 
*END

*D_NET *41 0.000852951
*CONN
*P b[17] I
*I *905:A I *D sky130_fd_sc_hd__clkbuf_1
*CAP
1 b[17] 0.00041202
2 *905:A 0.00041202
3 *905:A *766:A 2.89114e-05
4 *905:A *906:A 0
5 *904:A *905:A 0
*RES
1 b[17] *905:A 21.8357 
*END

*D_NET *42 0.000852951
*CONN
*P b[18] I
*I *906:A I *D sky130_fd_sc_hd__clkbuf_1
*CAP
1 b[18] 0.00041202
2 *906:A 0.00041202
3 *906:A *766:A 2.89114e-05
4 *906:A *907:A 0
5 *905:A *906:A 0
*RES
1 b[18] *906:A 21.8357 
*END

*D_NET *43 0.000846379
*CONN
*P b[19] I
*I *907:A I *D sky130_fd_sc_hd__clkbuf_1
*CAP
1 b[19] 0.000413544
2 *907:A 0.000413544
3 *907:A *764:A 1.92905e-05
4 *907:A *909:A 0
5 *906:A *907:A 0
*RES
1 b[19] *907:A 21.8357 
*END

*D_NET *44 0.000846379
*CONN
*P b[1] I
*I *908:A I *D sky130_fd_sc_hd__clkbuf_1
*CAP
1 b[1] 0.000413544
2 *908:A 0.000413544
3 *908:A *920:A 0
4 *908:A *221:14 1.92905e-05
5 *896:A *908:A 0
*RES
1 b[1] *908:A 21.8357 
*END

*D_NET *45 0.000844741
*CONN
*P b[20] I
*I *909:A I *D sky130_fd_sc_hd__clkbuf_1
*CAP
1 b[20] 0.000417872
2 *909:A 0.000417872
3 *909:A *762:A 5.30637e-06
4 *909:A *763:A 3.69047e-06
5 *909:A *910:A 0
6 *907:A *909:A 0
*RES
1 b[20] *909:A 21.8357 
*END

*D_NET *46 0.00094414
*CONN
*P b[21] I
*I *910:A I *D sky130_fd_sc_hd__clkbuf_1
*CAP
1 b[21] 0.000462425
2 *910:A 0.000462425
3 *910:A *761:A 1.92905e-05
4 *910:A *911:A 0
5 *909:A *910:A 0
*RES
1 b[21] *910:A 22.6571 
*END

*D_NET *47 0.000941071
*CONN
*P b[22] I
*I *911:A I *D sky130_fd_sc_hd__buf_1
*CAP
1 b[22] 0.000470535
2 *911:A 0.000470535
3 *911:A *912:A 0
4 *910:A *911:A 0
*RES
1 b[22] *911:A 22.6571 
*END

*D_NET *48 0.000844193
*CONN
*P b[23] I
*I *912:A I *D sky130_fd_sc_hd__buf_1
*CAP
1 b[23] 0.000419443
2 *912:A 0.000419443
3 *912:A *913:A 0
4 *912:A *225:8 5.30637e-06
5 *911:A *912:A 0
*RES
1 b[23] *912:A 21.8357 
*END

*D_NET *49 0.00084331
*CONN
*P b[24] I
*I *913:A I *D sky130_fd_sc_hd__buf_1
*CAP
1 b[24] 0.000421655
2 *913:A 0.000421655
3 *913:A *915:A 0
4 *912:A *913:A 0
*RES
1 b[24] *913:A 21.8357 
*END

*D_NET *50 0.00084331
*CONN
*P b[25] I
*I *915:A I *D sky130_fd_sc_hd__clkbuf_1
*CAP
1 b[25] 0.000421655
2 *915:A 0.000421655
3 *915:A *916:A 0
4 *913:A *915:A 0
*RES
1 b[25] *915:A 21.8357 
*END

*D_NET *51 0.00094414
*CONN
*P b[26] I
*I *916:A I *D sky130_fd_sc_hd__clkbuf_1
*CAP
1 b[26] 0.000462425
2 *916:A 0.000462425
3 *916:A *917:A 0
4 *916:A *228:10 1.92905e-05
5 *915:A *916:A 0
*RES
1 b[26] *916:A 22.6571 
*END

*D_NET *52 0.00084331
*CONN
*P b[27] I
*I *917:A I *D sky130_fd_sc_hd__clkbuf_1
*CAP
1 b[27] 0.000421655
2 *917:A 0.000421655
3 *917:A *918:A 0
4 *916:A *917:A 0
*RES
1 b[27] *917:A 21.8357 
*END

*D_NET *53 0.00084331
*CONN
*P b[28] I
*I *918:A I *D sky130_fd_sc_hd__clkbuf_1
*CAP
1 b[28] 0.000421655
2 *918:A 0.000421655
3 *918:A *919:A 0
4 *917:A *918:A 0
*RES
1 b[28] *918:A 21.8357 
*END

*D_NET *54 0.000856326
*CONN
*P b[29] I
*I *919:A I *D sky130_fd_sc_hd__buf_1
*CAP
1 b[29] 0.000413707
2 *919:A 0.000413707
3 *919:A *921:A 0
4 *919:A *231:8 2.89114e-05
5 *918:A *919:A 0
*RES
1 b[29] *919:A 21.8357 
*END

*D_NET *55 0.000844193
*CONN
*P b[2] I
*I *920:A I *D sky130_fd_sc_hd__buf_1
*CAP
1 b[2] 0.000419443
2 *920:A 0.000419443
3 *920:A *923:A 0
4 *920:A *233:18 5.30637e-06
5 *908:A *920:A 0
*RES
1 b[2] *920:A 21.8357 
*END

*D_NET *56 0.000996921
*CONN
*P b[30] I
*I *921:A I *D sky130_fd_sc_hd__buf_1
*CAP
1 b[30] 0.000444111
2 *921:A 0.000444111
3 *921:A *922:A 0
4 *921:A *231:8 5.03772e-05
5 *921:A *231:10 2.94103e-05
6 *921:A *234:8 2.89114e-05
7 *919:A *921:A 0
*RES
1 b[30] *921:A 22.6571 
*END

*D_NET *57 0.000953277
*CONN
*P b[31] I
*I *922:A I *D sky130_fd_sc_hd__buf_1
*CAP
1 b[31] 0.000455399
2 *922:A 0.000455399
3 *922:A *231:10 1.97381e-05
4 *922:A *235:8 2.27416e-05
5 *921:A *922:A 0
*RES
1 b[31] *922:A 22.6571 
*END

*D_NET *58 0.000852951
*CONN
*P b[3] I
*I *923:A I *D sky130_fd_sc_hd__buf_1
*CAP
1 b[3] 0.00041202
2 *923:A 0.00041202
3 *923:A *924:A 0
4 *923:A *239:10 2.89114e-05
5 *920:A *923:A 0
*RES
1 b[3] *923:A 21.8357 
*END

*D_NET *59 0.000967467
*CONN
*P b[4] I
*I *924:A I *D sky130_fd_sc_hd__clkbuf_1
*CAP
1 b[4] 0.000444846
2 *924:A 0.000444846
3 *924:A *926:A 0
4 *924:A *239:10 7.77751e-05
5 *923:A *924:A 0
*RES
1 b[4] *924:A 22.6571 
*END

*D_NET *60 0.000953346
*CONN
*P b[5] I
*I *926:A I *D sky130_fd_sc_hd__clkbuf_1
*CAP
1 b[5] 0.000462467
2 *926:A 0.000462467
3 *926:A *927:A 0
4 *926:A *239:10 2.84109e-05
5 *924:A *926:A 0
*RES
1 b[5] *926:A 22.6571 