*SPEF "ieee 1481-1999"
*DESIGN "comp32"
*DATE "16:56:55 Thursday May 09, 2024"
*VENDOR "The OpenROAD Project"
*PROGRAM "OpenROAD"
*VERSION "d423155d69de7f683a23f6916ead418a615ad4ad"
*DESIGN_FLOW "NAME_SCOPE LOCAL" "PIN_CAP NONE"
*DIVIDER /
*DELIMITER :
*BUS_DELIMITER []
*T_UNIT 1 NS
*C_UNIT 1 PF
*R_UNIT 1 OHM
*L_UNIT 1 HENRY

*NAME_MAP
*1 a[0]
*2 a[10]
*3 a[11]
*4 a[12]
*5 a[13]
*6 a[14]
*7 a[15]
*8 a[16]
*9 a[17]
*10 a[18]
*11 a[19]
*12 a[1]
*13 a[20]
*14 a[21]
*15 a[22]
*16 a[23]
*17 a[24]
*18 a[25]
*19 a[26]
*20 a[27]
*21 a[28]
*22 a[29]
*23 a[2]
*24 a[30]
*25 a[31]
*26 a[3]
*27 a[4]
*28 a[5]
*29 a[6]
*30 a[7]
*31 a[8]
*32 a[9]
*33 b[0]
*34 b[10]
*35 b[11]
*36 b[12]
*37 b[13]
*38 b[14]
*39 b[15]
*40 b[16]
*41 b[17]
*42 b[18]
*43 b[19]
*44 b[1]
*45 b[20]
*46 b[21]
*47 b[22]
*48 b[23]
*49 b[24]
*50 b[25]
*51 b[26]
*52 b[27]
*53 b[28]
*54 b[29]
*55 b[2]
*56 b[30]
*57 b[31]
*58 b[3]
*59 b[4]
*60 b[5]
*61 b[6]
*62 b[7]
*63 b[8]
*64 b[9]
*65 clk
*68 z
*69 _000_
*70 _001_
*71 _002_
*72 _003_
*73 _004_
*74 _005_
*75 _006_
*76 _007_
*77 _008_
*78 _009_
*79 _010_
*80 _011_
*81 _012_
*82 _013_
*83 _014_
*84 _015_
*85 _016_
*86 _017_
*87 _018_
*88 _019_
*89 _020_
*90 _021_
*91 _022_
*92 _023_
*93 _024_
*94 _025_
*95 _026_
*96 _027_
*97 _028_
*98 _029_
*99 _030_
*100 _031_
*101 _032_
*102 _033_
*103 _034_
*104 _035_
*105 _036_
*106 _037_
*107 _038_
*108 _039_
*109 _040_
*110 _041_
*111 _042_
*112 _043_
*113 _044_
*114 _045_
*115 _046_
*116 _047_
*117 _048_
*118 _049_
*119 _050_
*120 _051_
*121 _052_
*122 _053_
*123 _054_
*124 _055_
*125 _056_
*126 _057_
*127 _058_
*128 _059_
*129 _060_
*130 _061_
*131 _062_
*132 _063_
*133 _064_
*134 _065_
*135 _066_
*136 _067_
*137 _068_
*138 _069_
*139 _070_
*140 _071_
*141 _072_
*142 _073_
*143 _074_
*144 _075_
*145 _076_
*146 _077_
*147 _078_
*148 _079_
*149 _080_
*150 _081_
*151 _082_
*152 _083_
*153 _084_
*154 _085_
*155 _086_
*156 _087_
*157 _088_
*158 _089_
*159 _090_
*160 _091_
*161 _092_
*162 _093_
*163 _094_
*164 _095_
*165 _096_
*166 _097_
*167 _098_
*168 _099_
*169 _100_
*170 _101_
*171 _102_
*172 _103_
*173 _104_
*174 _105_
*175 _106_
*176 _107_
*177 _108_
*178 _109_
*179 _110_
*180 _111_
*181 _112_
*182 _113_
*183 net1
*184 net10
*185 net11
*186 net12
*187 net13
*188 net14
*189 net15
*190 net16
*191 net17
*192 net18
*193 net19
*194 net2
*195 net20
*196 net21
*197 net22
*198 net23
*199 net24
*200 net25
*201 net26
*202 net27
*203 net28
*204 net29
*205 net3
*206 net30
*207 net31
*208 net32
*209 net33
*210 net34
*211 net35
*212 net36
*213 net37
*214 net38
*215 net39
*216 net4
*217 net40
*218 net41
*219 net42
*220 net43
*221 net44
*222 net45
*223 net46
*224 net47
*225 net48
*226 net49
*227 net5
*228 net50
*229 net51
*230 net52
*231 net53
*232 net54
*233 net55
*234 net56
*235 net57
*236 net58
*237 net59
*238 net6
*239 net60
*240 net61
*241 net62
*242 net63
*243 net64
*244 net65
*245 net7
*246 net8
*247 net9
*248 FILLER_0_0_104
*249 FILLER_0_0_111
*250 FILLER_0_0_113
*251 FILLER_0_0_119
*252 FILLER_0_0_127
*253 FILLER_0_0_132
*254 FILLER_0_0_139
*255 FILLER_0_0_141
*256 FILLER_0_0_146
*257 FILLER_0_0_15
*258 FILLER_0_0_153
*259 FILLER_0_0_160
*260 FILLER_0_0_169
*261 FILLER_0_0_181
*262 FILLER_0_0_193
*263 FILLER_0_0_197
*264 FILLER_0_0_209
*265 FILLER_0_0_221
*266 FILLER_0_0_225
*267 FILLER_0_0_237
*268 FILLER_0_0_241
*269 FILLER_0_0_27
*270 FILLER_0_0_29
*271 FILLER_0_0_3
*272 FILLER_0_0_41
*273 FILLER_0_0_53
*274 FILLER_0_0_57
*275 FILLER_0_0_62
*276 FILLER_0_0_69
*277 FILLER_0_0_76
*278 FILLER_0_0_83
*279 FILLER_0_0_85
*280 FILLER_0_0_90
*281 FILLER_0_0_97
*282 FILLER_0_10_109
*283 FILLER_0_10_12
*284 FILLER_0_10_121
*285 FILLER_0_10_133
*286 FILLER_0_10_139
*287 FILLER_0_10_141
*288 FILLER_0_10_153
*289 FILLER_0_10_161
*290 FILLER_0_10_168
*291 FILLER_0_10_174
*292 FILLER_0_10_186
*293 FILLER_0_10_194
*294 FILLER_0_10_197
*295 FILLER_0_10_209
*296 FILLER_0_10_221
*297 FILLER_0_10_233
*298 FILLER_0_10_25
*299 FILLER_0_10_33
*300 FILLER_0_10_45
*301 FILLER_0_10_57
*302 FILLER_0_10_6
*303 FILLER_0_10_69
*304 FILLER_0_10_81
*305 FILLER_0_10_85
*306 FILLER_0_10_97
*307 FILLER_0_11_109
*308 FILLER_0_11_113
*309 FILLER_0_11_125
*310 FILLER_0_11_137
*311 FILLER_0_11_149
*312 FILLER_0_11_161
*313 FILLER_0_11_167
*314 FILLER_0_11_169
*315 FILLER_0_11_18
*316 FILLER_0_11_181
*317 FILLER_0_11_193
*318 FILLER_0_11_205
*319 FILLER_0_11_217
*320 FILLER_0_11_223
*321 FILLER_0_11_225
*322 FILLER_0_11_237
*323 FILLER_0_11_30
*324 FILLER_0_11_36
*325 FILLER_0_11_48
*326 FILLER_0_11_57
*327 FILLER_0_11_6
*328 FILLER_0_11_64
*329 FILLER_0_11_73
*330 FILLER_0_11_85
*331 FILLER_0_11_97
*332 FILLER_0_12_109
*333 FILLER_0_12_121
*334 FILLER_0_12_133
*335 FILLER_0_12_139
*336 FILLER_0_12_141
*337 FILLER_0_12_153
*338 FILLER_0_12_165
*339 FILLER_0_12_177
*340 FILLER_0_12_18
*341 FILLER_0_12_189
*342 FILLER_0_12_195
*343 FILLER_0_12_200
*344 FILLER_0_12_212
*345 FILLER_0_12_224
*346 FILLER_0_12_236
*347 FILLER_0_12_26
*348 FILLER_0_12_36
*349 FILLER_0_12_6
*350 FILLER_0_12_67
*351 FILLER_0_12_79
*352 FILLER_0_12_83
*353 FILLER_0_12_85
*354 FILLER_0_12_97
*355 FILLER_0_13_105
*356 FILLER_0_13_111
*357 FILLER_0_13_113
*358 FILLER_0_13_125
*359 FILLER_0_13_137
*360 FILLER_0_13_149
*361 FILLER_0_13_15
*362 FILLER_0_13_161
*363 FILLER_0_13_167
*364 FILLER_0_13_169
*365 FILLER_0_13_181
*366 FILLER_0_13_193
*367 FILLER_0_13_205
*368 FILLER_0_13_217
*369 FILLER_0_13_223
*370 FILLER_0_13_225
*371 FILLER_0_13_237
*372 FILLER_0_13_241
*373 FILLER_0_13_3
*374 FILLER_0_13_30
*375 FILLER_0_13_35
*376 FILLER_0_13_47
*377 FILLER_0_13_55
*378 FILLER_0_13_57
*379 FILLER_0_13_69
*380 FILLER_0_13_81
*381 FILLER_0_13_93
*382 FILLER_0_14_109
*383 FILLER_0_14_121
*384 FILLER_0_14_133
*385 FILLER_0_14_139
*386 FILLER_0_14_141
*387 FILLER_0_14_153
*388 FILLER_0_14_165
*389 FILLER_0_14_177
*390 FILLER_0_14_189
*391 FILLER_0_14_195
*392 FILLER_0_14_197
*393 FILLER_0_14_209
*394 FILLER_0_14_221
*395 FILLER_0_14_233
*396 FILLER_0_14_24
*397 FILLER_0_14_29
*398 FILLER_0_14_41
*399 FILLER_0_14_53
*400 FILLER_0_14_6
*401 FILLER_0_14_65
*402 FILLER_0_14_77
*403 FILLER_0_14_83
*404 FILLER_0_14_85
*405 FILLER_0_14_97
*406 FILLER_0_15_105
*407 FILLER_0_15_111
*408 FILLER_0_15_113
*409 FILLER_0_15_125
*410 FILLER_0_15_137
*411 FILLER_0_15_149
*412 FILLER_0_15_161
*413 FILLER_0_15_167
*414 FILLER_0_15_169
*415 FILLER_0_15_18
*416 FILLER_0_15_181
*417 FILLER_0_15_193
*418 FILLER_0_15_205
*419 FILLER_0_15_217
*420 FILLER_0_15_223
*421 FILLER_0_15_225
*422 FILLER_0_15_237
*423 FILLER_0_15_30
*424 FILLER_0_15_42
*425 FILLER_0_15_54
*426 FILLER_0_15_57
*427 FILLER_0_15_6
*428 FILLER_0_15_69
*429 FILLER_0_15_81
*430 FILLER_0_15_93
*431 FILLER_0_16_109
*432 FILLER_0_16_121
*433 FILLER_0_16_133
*434 FILLER_0_16_139
*435 FILLER_0_16_141
*436 FILLER_0_16_153
*437 FILLER_0_16_165
*438 FILLER_0_16_177
*439 FILLER_0_16_18
*440 FILLER_0_16_189
*441 FILLER_0_16_195
*442 FILLER_0_16_197
*443 FILLER_0_16_209
*444 FILLER_0_16_221
*445 FILLER_0_16_233
*446 FILLER_0_16_26
*447 FILLER_0_16_29
*448 FILLER_0_16_41
*449 FILLER_0_16_53
*450 FILLER_0_16_6
*451 FILLER_0_16_65
*452 FILLER_0_16_77
*453 FILLER_0_16_83
*454 FILLER_0_16_85
*455 FILLER_0_16_97
*456 FILLER_0_17_105
*457 FILLER_0_17_111
*458 FILLER_0_17_113
*459 FILLER_0_17_125
*460 FILLER_0_17_137
*461 FILLER_0_17_149
*462 FILLER_0_17_161
*463 FILLER_0_17_167
*464 FILLER_0_17_169
*465 FILLER_0_17_18
*466 FILLER_0_17_181
*467 FILLER_0_17_193
*468 FILLER_0_17_205
*469 FILLER_0_17_217
*470 FILLER_0_17_223
*471 FILLER_0_17_225
*472 FILLER_0_17_237
*473 FILLER_0_17_30
*474 FILLER_0_17_42
*475 FILLER_0_17_54
*476 FILLER_0_17_57
*477 FILLER_0_17_6
*478 FILLER_0_17_69
*479 FILLER_0_17_81
*480 FILLER_0_17_93
*481 FILLER_0_18_109
*482 FILLER_0_18_121
*483 FILLER_0_18_133
*484 FILLER_0_18_139
*485 FILLER_0_18_141
*486 FILLER_0_18_15
*487 FILLER_0_18_153
*488 FILLER_0_18_165
*489 FILLER_0_18_177
*490 FILLER_0_18_189
*491 FILLER_0_18_195
*492 FILLER_0_18_197
*493 FILLER_0_18_209
*494 FILLER_0_18_221
*495 FILLER_0_18_233
*496 FILLER_0_18_241
*497 FILLER_0_18_27
*498 FILLER_0_18_29
*499 FILLER_0_18_3
*500 FILLER_0_18_41
*501 FILLER_0_18_53
*502 FILLER_0_18_65
*503 FILLER_0_18_77
*504 FILLER_0_18_83
*505 FILLER_0_18_85
*506 FILLER_0_18_97
*507 FILLER_0_19_105
*508 FILLER_0_19_111
*509 FILLER_0_19_113
*510 FILLER_0_19_125
*511 FILLER_0_19_137
*512 FILLER_0_19_149
*513 FILLER_0_19_161
*514 FILLER_0_19_167
*515 FILLER_0_19_169
*516 FILLER_0_19_18
*517 FILLER_0_19_181
*518 FILLER_0_19_193
*519 FILLER_0_19_205
*520 FILLER_0_19_217
*521 FILLER_0_19_223
*522 FILLER_0_19_225
*523 FILLER_0_19_237
*524 FILLER_0_19_30
*525 FILLER_0_19_42
*526 FILLER_0_19_54
*527 FILLER_0_19_57
*528 FILLER_0_19_6
*529 FILLER_0_19_69
*530 FILLER_0_19_81
*531 FILLER_0_19_93
*532 FILLER_0_1_103
*533 FILLER_0_1_111
*534 FILLER_0_1_113
*535 FILLER_0_1_125
*536 FILLER_0_1_137
*537 FILLER_0_1_149
*538 FILLER_0_1_15
*539 FILLER_0_1_161
*540 FILLER_0_1_167
*541 FILLER_0_1_169
*542 FILLER_0_1_181
*543 FILLER_0_1_193
*544 FILLER_0_1_205
*545 FILLER_0_1_217
*546 FILLER_0_1_223
*547 FILLER_0_1_225
*548 FILLER_0_1_237
*549 FILLER_0_1_241
*550 FILLER_0_1_27
*551 FILLER_0_1_3
*552 FILLER_0_1_39
*553 FILLER_0_1_51
*554 FILLER_0_1_55
*555 FILLER_0_1_57
*556 FILLER_0_1_65
*557 FILLER_0_1_72
*558 FILLER_0_1_84
*559 FILLER_0_1_91
*560 FILLER_0_20_109
*561 FILLER_0_20_121
*562 FILLER_0_20_133
*563 FILLER_0_20_139
*564 FILLER_0_20_141
*565 FILLER_0_20_153
*566 FILLER_0_20_165
*567 FILLER_0_20_177
*568 FILLER_0_20_18
*569 FILLER_0_20_189
*570 FILLER_0_20_195
*571 FILLER_0_20_197
*572 FILLER_0_20_209
*573 FILLER_0_20_217
*574 FILLER_0_20_23
*575 FILLER_0_20_231
*576 FILLER_0_20_27
*577 FILLER_0_20_37
*578 FILLER_0_20_49
*579 FILLER_0_20_6
*580 FILLER_0_20_61
*581 FILLER_0_20_73
*582 FILLER_0_20_81
*583 FILLER_0_20_85
*584 FILLER_0_20_97
*585 FILLER_0_21_105
*586 FILLER_0_21_111
*587 FILLER_0_21_113
*588 FILLER_0_21_125
*589 FILLER_0_21_137
*590 FILLER_0_21_14
*591 FILLER_0_21_149
*592 FILLER_0_21_161
*593 FILLER_0_21_167
*594 FILLER_0_21_169
*595 FILLER_0_21_181
*596 FILLER_0_21_193
*597 FILLER_0_21_205
*598 FILLER_0_21_238
*599 FILLER_0_21_34
*600 FILLER_0_21_46
*601 FILLER_0_21_52
*602 FILLER_0_21_57
*603 FILLER_0_21_6
*604 FILLER_0_21_69
*605 FILLER_0_21_81
*606 FILLER_0_21_93
*607 FILLER_0_22_109
*608 FILLER_0_22_121
*609 FILLER_0_22_133
*610 FILLER_0_22_139
*611 FILLER_0_22_141
*612 FILLER_0_22_153
*613 FILLER_0_22_165
*614 FILLER_0_22_177
*615 FILLER_0_22_18
*616 FILLER_0_22_189
*617 FILLER_0_22_195
*618 FILLER_0_22_197
*619 FILLER_0_22_209
*620 FILLER_0_22_230
*621 FILLER_0_22_238
*622 FILLER_0_22_29
*623 FILLER_0_22_41
*624 FILLER_0_22_53
*625 FILLER_0_22_6
*626 FILLER_0_22_65
*627 FILLER_0_22_77
*628 FILLER_0_22_83
*629 FILLER_0_22_85
*630 FILLER_0_22_97
*631 FILLER_0_23_107
*632 FILLER_0_23_11
*633 FILLER_0_23_111
*634 FILLER_0_23_113
*635 FILLER_0_23_125
*636 FILLER_0_23_137
*637 FILLER_0_23_149
*638 FILLER_0_23_161
*639 FILLER_0_23_167
*640 FILLER_0_23_169
*641 FILLER_0_23_181
*642 FILLER_0_23_193
*643 FILLER_0_23_205
*644 FILLER_0_23_217
*645 FILLER_0_23_223
*646 FILLER_0_23_225
*647 FILLER_0_23_237
*648 FILLER_0_23_241
*649 FILLER_0_23_3
*650 FILLER_0_23_37
*651 FILLER_0_23_49
*652 FILLER_0_23_55
*653 FILLER_0_23_57
*654 FILLER_0_23_65
*655 FILLER_0_23_71
*656 FILLER_0_23_83
*657 FILLER_0_23_95
*658 FILLER_0_24_109
*659 FILLER_0_24_121
*660 FILLER_0_24_133
*661 FILLER_0_24_139
*662 FILLER_0_24_141
*663 FILLER_0_24_153
*664 FILLER_0_24_165
*665 FILLER_0_24_177
*666 FILLER_0_24_189
*667 FILLER_0_24_195
*668 FILLER_0_24_197
*669 FILLER_0_24_209
*670 FILLER_0_24_221
*671 FILLER_0_24_233
*672 FILLER_0_24_27
*673 FILLER_0_24_32
*674 FILLER_0_24_44
*675 FILLER_0_24_56
*676 FILLER_0_24_6
*677 FILLER_0_24_68
*678 FILLER_0_24_78
*679 FILLER_0_24_85
*680 FILLER_0_24_97
*681 FILLER_0_25_105
*682 FILLER_0_25_111
*683 FILLER_0_25_113
*684 FILLER_0_25_125
*685 FILLER_0_25_137
*686 FILLER_0_25_149
*687 FILLER_0_25_161
*688 FILLER_0_25_167
*689 FILLER_0_25_169
*690 FILLER_0_25_18
*691 FILLER_0_25_181
*692 FILLER_0_25_193
*693 FILLER_0_25_205
*694 FILLER_0_25_217
*695 FILLER_0_25_223
*696 FILLER_0_25_225
*697 FILLER_0_25_237
*698 FILLER_0_25_30
*699 FILLER_0_25_42
*700 FILLER_0_25_54
*701 FILLER_0_25_57
*702 FILLER_0_25_6
*703 FILLER_0_25_65
*704 FILLER_0_25_81
*705 FILLER_0_25_93
*706 FILLER_0_26_104
*707 FILLER_0_26_116
*708 FILLER_0_26_128
*709 FILLER_0_26_141
*710 FILLER_0_26_153
*711 FILLER_0_26_169
*712 FILLER_0_26_18
*713 FILLER_0_26_181
*714 FILLER_0_26_193
*715 FILLER_0_26_197
*716 FILLER_0_26_209
*717 FILLER_0_26_221
*718 FILLER_0_26_233
*719 FILLER_0_26_241
*720 FILLER_0_26_26
*721 FILLER_0_26_29
*722 FILLER_0_26_41
*723 FILLER_0_26_53
*724 FILLER_0_26_6
*725 FILLER_0_26_65
*726 FILLER_0_26_73
*727 FILLER_0_26_80
*728 FILLER_0_26_92
*729 FILLER_0_27_105
*730 FILLER_0_27_111
*731 FILLER_0_27_113
*732 FILLER_0_27_125
*733 FILLER_0_27_137
*734 FILLER_0_27_143
*735 FILLER_0_27_147
*736 FILLER_0_27_158
*737 FILLER_0_27_176
*738 FILLER_0_27_18
*739 FILLER_0_27_188
*740 FILLER_0_27_200
*741 FILLER_0_27_212
*742 FILLER_0_27_225
*743 FILLER_0_27_237
*744 FILLER_0_27_241
*745 FILLER_0_27_30
*746 FILLER_0_27_42
*747 FILLER_0_27_54
*748 FILLER_0_27_57
*749 FILLER_0_27_6
*750 FILLER_0_27_69
*751 FILLER_0_27_81
*752 FILLER_0_27_87
*753 FILLER_0_27_93
*754 FILLER_0_28_102
*755 FILLER_0_28_106
*756 FILLER_0_28_118
*757 FILLER_0_28_130
*758 FILLER_0_28_137
*759 FILLER_0_28_141
*760 FILLER_0_28_15
*761 FILLER_0_28_180
*762 FILLER_0_28_192
*763 FILLER_0_28_197
*764 FILLER_0_28_209
*765 FILLER_0_28_221
*766 FILLER_0_28_233
*767 FILLER_0_28_241
*768 FILLER_0_28_27
*769 FILLER_0_28_29
*770 FILLER_0_28_3
*771 FILLER_0_28_41
*772 FILLER_0_28_53
*773 FILLER_0_28_65
*774 FILLER_0_28_77
*775 FILLER_0_28_85
*776 FILLER_0_29_105
*777 FILLER_0_29_111
*778 FILLER_0_29_113
*779 FILLER_0_29_125
*780 FILLER_0_29_137
*781 FILLER_0_29_149
*782 FILLER_0_29_161
*783 FILLER_0_29_167
*784 FILLER_0_29_174
*785 FILLER_0_29_18
*786 FILLER_0_29_186
*787 FILLER_0_29_198
*788 FILLER_0_29_210
*789 FILLER_0_29_222
*790 FILLER_0_29_225
*791 FILLER_0_29_237
*792 FILLER_0_29_241
*793 FILLER_0_29_30
*794 FILLER_0_29_42
*795 FILLER_0_29_54
*796 FILLER_0_29_57
*797 FILLER_0_29_6
*798 FILLER_0_29_69
*799 FILLER_0_29_81
*800 FILLER_0_29_93
*801 FILLER_0_2_100
*802 FILLER_0_2_112
*803 FILLER_0_2_124
*804 FILLER_0_2_136
*805 FILLER_0_2_15
*806 FILLER_0_2_161
*807 FILLER_0_2_173
*808 FILLER_0_2_185
*809 FILLER_0_2_193
*810 FILLER_0_2_197
*811 FILLER_0_2_209
*812 FILLER_0_2_221
*813 FILLER_0_2_233
*814 FILLER_0_2_27
*815 FILLER_0_2_29
*816 FILLER_0_2_3
*817 FILLER_0_2_41
*818 FILLER_0_2_53
*819 FILLER_0_2_59
*820 FILLER_0_30_104
*821 FILLER_0_30_111
*822 FILLER_0_30_113
*823 FILLER_0_30_118
*824 FILLER_0_30_126
*825 FILLER_0_30_132
*826 FILLER_0_30_139
*827 FILLER_0_30_141
*828 FILLER_0_30_146
*829 FILLER_0_30_15
*830 FILLER_0_30_153
*831 FILLER_0_30_160
*832 FILLER_0_30_167
*833 FILLER_0_30_169
*834 FILLER_0_30_174
*835 FILLER_0_30_181
*836 FILLER_0_30_193
*837 FILLER_0_30_197
*838 FILLER_0_30_209
*839 FILLER_0_30_221
*840 FILLER_0_30_225
*841 FILLER_0_30_237
*842 FILLER_0_30_241
*843 FILLER_0_30_27
*844 FILLER_0_30_29
*845 FILLER_0_30_3
*846 FILLER_0_30_41
*847 FILLER_0_30_53
*848 FILLER_0_30_57
*849 FILLER_0_30_69
*850 FILLER_0_30_77
*851 FILLER_0_30_83
*852 FILLER_0_30_85
*853 FILLER_0_30_90
*854 FILLER_0_30_97
*855 FILLER_0_3_101
*856 FILLER_0_3_109
*857 FILLER_0_3_113
*858 FILLER_0_3_125
*859 FILLER_0_3_137
*860 FILLER_0_3_149
*861 FILLER_0_3_15
*862 FILLER_0_3_161
*863 FILLER_0_3_167
*864 FILLER_0_3_169
*865 FILLER_0_3_181
*866 FILLER_0_3_193
*867 FILLER_0_3_205
*868 FILLER_0_3_217
*869 FILLER_0_3_223
*870 FILLER_0_3_225
*871 FILLER_0_3_237
*872 FILLER_0_3_241
*873 FILLER_0_3_27
*874 FILLER_0_3_3
*875 FILLER_0_3_39
*876 FILLER_0_3_51
*877 FILLER_0_3_55
*878 FILLER_0_3_57
*879 FILLER_0_3_65
*880 FILLER_0_3_83
*881 FILLER_0_3_89
*882 FILLER_0_4_109
*883 FILLER_0_4_121
*884 FILLER_0_4_133
*885 FILLER_0_4_139
*886 FILLER_0_4_141
*887 FILLER_0_4_149
*888 FILLER_0_4_15
*889 FILLER_0_4_164
*890 FILLER_0_4_176
*891 FILLER_0_4_188
*892 FILLER_0_4_197
*893 FILLER_0_4_209
*894 FILLER_0_4_221
*895 FILLER_0_4_225
*896 FILLER_0_4_237
*897 FILLER_0_4_27
*898 FILLER_0_4_29
*899 FILLER_0_4_3
*900 FILLER_0_4_41
*901 FILLER_0_4_53
*902 FILLER_0_4_65
*903 FILLER_0_4_71
*904 FILLER_0_4_75
*905 FILLER_0_4_83
*906 FILLER_0_4_85
*907 FILLER_0_4_97
*908 FILLER_0_5_105
*909 FILLER_0_5_111
*910 FILLER_0_5_113
*911 FILLER_0_5_125
*912 FILLER_0_5_137
*913 FILLER_0_5_149
*914 FILLER_0_5_15
*915 FILLER_0_5_161
*916 FILLER_0_5_167
*917 FILLER_0_5_169
*918 FILLER_0_5_181
*919 FILLER_0_5_193
*920 FILLER_0_5_205
*921 FILLER_0_5_217
*922 FILLER_0_5_233
*923 FILLER_0_5_27
*924 FILLER_0_5_3
*925 FILLER_0_5_39
*926 FILLER_0_5_51
*927 FILLER_0_5_55
*928 FILLER_0_5_57
*929 FILLER_0_5_69
*930 FILLER_0_5_81
*931 FILLER_0_5_93
*932 FILLER_0_6_109
*933 FILLER_0_6_121
*934 FILLER_0_6_133
*935 FILLER_0_6_139
*936 FILLER_0_6_141
*937 FILLER_0_6_153
*938 FILLER_0_6_161
*939 FILLER_0_6_166
*940 FILLER_0_6_178
*941 FILLER_0_6_18
*942 FILLER_0_6_190
*943 FILLER_0_6_197
*944 FILLER_0_6_209
*945 FILLER_0_6_213
*946 FILLER_0_6_233
*947 FILLER_0_6_26
*948 FILLER_0_6_29
*949 FILLER_0_6_41
*950 FILLER_0_6_53
*951 FILLER_0_6_6
*952 FILLER_0_6_65
*953 FILLER_0_6_77
*954 FILLER_0_6_83
*955 FILLER_0_6_85
*956 FILLER_0_6_97
*957 FILLER_0_7_105
*958 FILLER_0_7_111
*959 FILLER_0_7_113
*960 FILLER_0_7_125
*961 FILLER_0_7_137
*962 FILLER_0_7_149
*963 FILLER_0_7_15
*964 FILLER_0_7_161
*965 FILLER_0_7_167
*966 FILLER_0_7_169
*967 FILLER_0_7_181
*968 FILLER_0_7_193
*969 FILLER_0_7_205
*970 FILLER_0_7_211
*971 FILLER_0_7_221
*972 FILLER_0_7_237
*973 FILLER_0_7_27
*974 FILLER_0_7_3
*975 FILLER_0_7_39
*976 FILLER_0_7_51
*977 FILLER_0_7_55
*978 FILLER_0_7_57
*979 FILLER_0_7_69
*980 FILLER_0_7_81
*981 FILLER_0_7_93
*982 FILLER_0_8_109
*983 FILLER_0_8_121
*984 FILLER_0_8_133
*985 FILLER_0_8_139
*986 FILLER_0_8_141
*987 FILLER_0_8_15
*988 FILLER_0_8_153
*989 FILLER_0_8_165
*990 FILLER_0_8_182
*991 FILLER_0_8_19
*992 FILLER_0_8_194
*993 FILLER_0_8_197
*994 FILLER_0_8_209
*995 FILLER_0_8_215
*996 FILLER_0_8_23
*997 FILLER_0_8_232
*998 FILLER_0_8_240
*999 FILLER_0_8_27
*1000 FILLER_0_8_29
*1001 FILLER_0_8_3
*1002 FILLER_0_8_41
*1003 FILLER_0_8_53
*1004 FILLER_0_8_65
*1005 FILLER_0_8_77
*1006 FILLER_0_8_83
*1007 FILLER_0_8_85
*1008 FILLER_0_8_97
*1009 FILLER_0_9_102
*1010 FILLER_0_9_110
*1011 FILLER_0_9_113
*1012 FILLER_0_9_125
*1013 FILLER_0_9_137
*1014 FILLER_0_9_149
*1015 FILLER_0_9_161
*1016 FILLER_0_9_169
*1017 FILLER_0_9_18
*1018 FILLER_0_9_185
*1019 FILLER_0_9_197
*1020 FILLER_0_9_209
*1021 FILLER_0_9_221
*1022 FILLER_0_9_225
*1023 FILLER_0_9_23
*1024 FILLER_0_9_237
*1025 FILLER_0_9_35
*1026 FILLER_0_9_47
*1027 FILLER_0_9_55
*1028 FILLER_0_9_57
*1029 FILLER_0_9_6
*1030 FILLER_0_9_61
*1031 FILLER_0_9_78
*1032 FILLER_0_9_90
*1033 PHY_EDGE_ROW_0_Left_31
*1034 PHY_EDGE_ROW_0_Right_0
*1035 PHY_EDGE_ROW_10_Left_41
*1036 PHY_EDGE_ROW_10_Right_10
*1037 PHY_EDGE_ROW_11_Left_42
*1038 PHY_EDGE_ROW_11_Right_11
*1039 PHY_EDGE_ROW_12_Left_43
*1040 PHY_EDGE_ROW_12_Right_12
*1041 PHY_EDGE_ROW_13_Left_44
*1042 PHY_EDGE_ROW_13_Right_13
*1043 PHY_EDGE_ROW_14_Left_45
*1044 PHY_EDGE_ROW_14_Right_14
*1045 PHY_EDGE_ROW_15_Left_46
*1046 PHY_EDGE_ROW_15_Right_15
*1047 PHY_EDGE_ROW_16_Left_47
*1048 PHY_EDGE_ROW_16_Right_16
*1049 PHY_EDGE_ROW_17_Left_48
*1050 PHY_EDGE_ROW_17_Right_17
*1051 PHY_EDGE_ROW_18_Left_49
*1052 PHY_EDGE_ROW_18_Right_18
*1053 PHY_EDGE_ROW_19_Left_50
*1054 PHY_EDGE_ROW_19_Right_19
*1055 PHY_EDGE_ROW_1_Left_32
*1056 PHY_EDGE_ROW_1_Right_1
*1057 PHY_EDGE_ROW_20_Left_51
*1058 PHY_EDGE_ROW_20_Right_20
*1059 PHY_EDGE_ROW_21_Left_52
*1060 PHY_EDGE_ROW_21_Right_21
*1061 PHY_EDGE_ROW_22_Left_53
*1062 PHY_EDGE_ROW_22_Right_22
*1063 PHY_EDGE_ROW_23_Left_54
*1064 PHY_EDGE_ROW_23_Right_23
*1065 PHY_EDGE_ROW_24_Left_55
*1066 PHY_EDGE_ROW_24_Right_24
*1067 PHY_EDGE_ROW_25_Left_56
*1068 PHY_EDGE_ROW_25_Right_25
*1069 PHY_EDGE_ROW_26_Left_57
*1070 PHY_EDGE_ROW_26_Right_26
*1071 PHY_EDGE_ROW_27_Left_58
*1072 PHY_EDGE_ROW_27_Right_27
*1073 PHY_EDGE_ROW_28_Left_59
*1074 PHY_EDGE_ROW_28_Right_28
*1075 PHY_EDGE_ROW_29_Left_60
*1076 PHY_EDGE_ROW_29_Right_29
*1077 PHY_EDGE_ROW_2_Left_33
*1078 PHY_EDGE_ROW_2_Right_2
*1079 PHY_EDGE_ROW_30_Left_61
*1080 PHY_EDGE_ROW_30_Right_30
*1081 PHY_EDGE_ROW_3_Left_34
*1082 PHY_EDGE_ROW_3_Right_3
*1083 PHY_EDGE_ROW_4_Left_35
*1084 PHY_EDGE_ROW_4_Right_4
*1085 PHY_EDGE_ROW_5_Left_36
*1086 PHY_EDGE_ROW_5_Right_5
*1087 PHY_EDGE_ROW_6_Left_37
*1088 PHY_EDGE_ROW_6_Right_6
*1089 PHY_EDGE_ROW_7_Left_38
*1090 PHY_EDGE_ROW_7_Right_7
*1091 PHY_EDGE_ROW_8_Left_39
*1092 PHY_EDGE_ROW_8_Right_8
*1093 PHY_EDGE_ROW_9_Left_40
*1094 PHY_EDGE_ROW_9_Right_9
*1095 TAP_TAPCELL_ROW_0_62
*1096 TAP_TAPCELL_ROW_0_63
*1097 TAP_TAPCELL_ROW_0_64
*1098 TAP_TAPCELL_ROW_0_65
*1099 TAP_TAPCELL_ROW_0_66
*1100 TAP_TAPCELL_ROW_0_67
*1101 TAP_TAPCELL_ROW_0_68
*1102 TAP_TAPCELL_ROW_0_69
*1103 TAP_TAPCELL_ROW_10_106
*1104 TAP_TAPCELL_ROW_10_107
*1105 TAP_TAPCELL_ROW_10_108
*1106 TAP_TAPCELL_ROW_10_109
*1107 TAP_TAPCELL_ROW_11_110
*1108 TAP_TAPCELL_ROW_11_111
*1109 TAP_TAPCELL_ROW_11_112
*1110 TAP_TAPCELL_ROW_11_113
*1111 TAP_TAPCELL_ROW_12_114
*1112 TAP_TAPCELL_ROW_12_115
*1113 TAP_TAPCELL_ROW_12_116
*1114 TAP_TAPCELL_ROW_12_117
*1115 TAP_TAPCELL_ROW_13_118
*1116 TAP_TAPCELL_ROW_13_119
*1117 TAP_TAPCELL_ROW_13_120
*1118 TAP_TAPCELL_ROW_13_121
*1119 TAP_TAPCELL_ROW_14_122
*1120 TAP_TAPCELL_ROW_14_123
*1121 TAP_TAPCELL_ROW_14_124
*1122 TAP_TAPCELL_ROW_14_125
*1123 TAP_TAPCELL_ROW_15_126
*1124 TAP_TAPCELL_ROW_15_127
*1125 TAP_TAPCELL_ROW_15_128
*1126 TAP_TAPCELL_ROW_15_129
*1127 TAP_TAPCELL_ROW_16_130
*1128 TAP_TAPCELL_ROW_16_131
*1129 TAP_TAPCELL_ROW_16_132
*1130 TAP_TAPCELL_ROW_16_133
*1131 TAP_TAPCELL_ROW_17_134
*1132 TAP_TAPCELL_ROW_17_135
*1133 TAP_TAPCELL_ROW_17_136
*1134 TAP_TAPCELL_ROW_17_137
*1135 TAP_TAPCELL_ROW_18_138
*1136 TAP_TAPCELL_ROW_18_139
*1137 TAP_TAPCELL_ROW_18_140
*1138 TAP_TAPCELL_ROW_18_141
*1139 TAP_TAPCELL_ROW_19_142
*1140 TAP_TAPCELL_ROW_19_143
*1141 TAP_TAPCELL_ROW_19_144
*1142 TAP_TAPCELL_ROW_19_145
*1143 TAP_TAPCELL_ROW_1_70
*1144 TAP_TAPCELL_ROW_1_71
*1145 TAP_TAPCELL_ROW_1_72
*1146 TAP_TAPCELL_ROW_1_73
*1147 TAP_TAPCELL_ROW_20_146
*1148 TAP_TAPCELL_ROW_20_147
*1149 TAP_TAPCELL_ROW_20_148
*1150 TAP_TAPCELL_ROW_20_149
*1151 TAP_TAPCELL_ROW_21_150
*1152 TAP_TAPCELL_ROW_21_151
*1153 TAP_TAPCELL_ROW_21_152
*1154 TAP_TAPCELL_ROW_21_153
*1155 TAP_TAPCELL_ROW_22_154
*1156 TAP_TAPCELL_ROW_22_155
*1157 TAP_TAPCELL_ROW_22_156
*1158 TAP_TAPCELL_ROW_22_157
*1159 TAP_TAPCELL_ROW_23_158
*1160 TAP_TAPCELL_ROW_23_159
*1161 TAP_TAPCELL_ROW_23_160
*1162 TAP_TAPCELL_ROW_23_161
*1163 TAP_TAPCELL_ROW_24_162
*1164 TAP_TAPCELL_ROW_24_163
*1165 TAP_TAPCELL_ROW_24_164
*1166 TAP_TAPCELL_ROW_24_165
*1167 TAP_TAPCELL_ROW_25_166
*1168 TAP_TAPCELL_ROW_25_167
*1169 TAP_TAPCELL_ROW_25_168
*1170 TAP_TAPCELL_ROW_25_169
*1171 TAP_TAPCELL_ROW_26_170
*1172 TAP_TAPCELL_ROW_26_171
*1173 TAP_TAPCELL_ROW_26_172
*1174 TAP_TAPCELL_ROW_26_173
*1175 TAP_TAPCELL_ROW_27_174
*1176 TAP_TAPCELL_ROW_27_175
*1177 TAP_TAPCELL_ROW_27_176
*1178 TAP_TAPCELL_ROW_27_177
*1179 TAP_TAPCELL_ROW_28_178
*1180 TAP_TAPCELL_ROW_28_179
*1181 TAP_TAPCELL_ROW_28_180
*1182 TAP_TAPCELL_ROW_28_181
*1183 TAP_TAPCELL_ROW_29_182
*1184 TAP_TAPCELL_ROW_29_183
*1185 TAP_TAPCELL_ROW_29_184
*1186 TAP_TAPCELL_ROW_29_185
*1187 TAP_TAPCELL_ROW_2_74
*1188 TAP_TAPCELL_ROW_2_75
*1189 TAP_TAPCELL_ROW_2_76
*1190 TAP_TAPCELL_ROW_2_77
*1191 TAP_TAPCELL_ROW_30_186
*1192 TAP_TAPCELL_ROW_30_187
*1193 TAP_TAPCELL_ROW_30_188
*1194 TAP_TAPCELL_ROW_30_189
*1195 TAP_TAPCELL_ROW_30_190
*1196 TAP_TAPCELL_ROW_30_191
*1197 TAP_TAPCELL_ROW_30_192
*1198 TAP_TAPCELL_ROW_30_193
*1199 TAP_TAPCELL_ROW_3_78
*1200 TAP_TAPCELL_ROW_3_79
*1201 TAP_TAPCELL_ROW_3_80
*1202 TAP_TAPCELL_ROW_3_81
*1203 TAP_TAPCELL_ROW_4_82
*1204 TAP_TAPCELL_ROW_4_83
*1205 TAP_TAPCELL_ROW_4_84
*1206 TAP_TAPCELL_ROW_4_85
*1207 TAP_TAPCELL_ROW_5_86
*1208 TAP_TAPCELL_ROW_5_87
*1209 TAP_TAPCELL_ROW_5_88
*1210 TAP_TAPCELL_ROW_5_89
*1211 TAP_TAPCELL_ROW_6_90
*1212 TAP_TAPCELL_ROW_6_91
*1213 TAP_TAPCELL_ROW_6_92
*1214 TAP_TAPCELL_ROW_6_93
*1215 TAP_TAPCELL_ROW_7_94
*1216 TAP_TAPCELL_ROW_7_95
*1217 TAP_TAPCELL_ROW_7_96
*1218 TAP_TAPCELL_ROW_7_97
*1219 TAP_TAPCELL_ROW_8_100
*1220 TAP_TAPCELL_ROW_8_101
*1221 TAP_TAPCELL_ROW_8_98
*1222 TAP_TAPCELL_ROW_8_99
*1223 TAP_TAPCELL_ROW_9_102
*1224 TAP_TAPCELL_ROW_9_103
*1225 TAP_TAPCELL_ROW_9_104
*1226 TAP_TAPCELL_ROW_9_105
*1227 _114_
*1228 _115_
*1229 _116_
*1230 _117_
*1231 _118_
*1232 _119_
*1233 _120_
*1234 _121_
*1235 _122_
*1236 _123_
*1237 _124_
*1238 _125_
*1239 _126_
*1240 _127_
*1241 _128_
*1242 _129_
*1243 _130_
*1244 _131_
*1245 _132_
*1246 _133_
*1247 _134_
*1248 _135_
*1249 _136_
*1250 _137_
*1251 _138_
*1252 _139_
*1253 _140_
*1254 _141_
*1255 _142_
*1256 _143_
*1257 _144_
*1258 _145_
*1259 _146_
*1260 _147_
*1261 _148_
*1262 _149_
*1263 _150_
*1264 _151_
*1265 _152_
*1266 _153_
*1267 _154_
*1268 _155_
*1269 _156_
*1270 _157_
*1271 _158_
*1272 _159_
*1273 _160_
*1274 _161_
*1275 _162_
*1276 _163_
*1277 _164_
*1278 _165_
*1279 _166_
*1280 _167_
*1281 _168_
*1282 _169_
*1283 _170_
*1284 _171_
*1285 _172_
*1286 _173_
*1287 _174_
*1288 _175_
*1289 _176_
*1290 _177_
*1291 _178_
*1292 _179_
*1293 _180_
*1294 _181_
*1295 _182_
*1296 _183_
*1297 _184_
*1298 _185_
*1299 _186_
*1300 _187_
*1301 _188_
*1302 _189_
*1303 _190_
*1304 _191_
*1305 _192_
*1306 _193_
*1307 _194_
*1308 _195_
*1309 _196_
*1310 _197_
*1311 _198_
*1312 _199_
*1313 _200_
*1314 _201_
*1315 _202_
*1316 _203_
*1317 _204_
*1318 _205_
*1319 _206_
*1320 _207_
*1321 _208_
*1322 _209_
*1323 _210_
*1324 _211_
*1325 _212_
*1326 _213_
*1327 _214_
*1328 _215_
*1329 _216_
*1330 _217_
*1331 _218_
*1332 _219_
*1333 _220_
*1334 _221_
*1335 _222_
*1336 _223_
*1337 _224_
*1338 _225_
*1339 _226_
*1340 _227_
*1341 _228_
*1342 input1
*1343 input10
*1344 input11
*1345 input12
*1346 input13
*1347 input14
*1348 input15
*1349 input16
*1350 input17
*1351 input18
*1352 input19
*1353 input2
*1354 input20
*1355 input21
*1356 input22
*1357 input23
*1358 input24
*1359 input25
*1360 input26
*1361 input27
*1362 input28
*1363 input29
*1364 input3
*1365 input30
*1366 input31
*1367 input32
*1368 input33
*1369 input34
*1370 input35
*1371 input36
*1372 input37
*1373 input38
*1374 input39
*1375 input4
*1376 input40
*1377 input41
*1378 input42
*1379 input43
*1380 input44
*1381 input45
*1382 input46
*1383 input47
*1384 input48
*1385 input49
*1386 input5
*1387 input50
*1388 input51
*1389 input52
*1390 input53
*1391 input54
*1392 input55
*1393 input56
*1394 input57
*1395 input58
*1396 input59
*1397 input6
*1398 input60
*1399 input61
*1400 input62
*1401 input63
*1402 input64
*1403 input7
*1404 input8
*1405 input9
*1406 output65

*PORTS
a[0] I
a[10] I
a[11] I
a[12] I
a[13] I
a[14] I
a[15] I
a[16] I
a[17] I
a[18] I
a[19] I
a[1] I
a[20] I
a[21] I
a[22] I
a[23] I
a[24] I
a[25] I
a[26] I
a[27] I
a[28] I
a[29] I
a[2] I
a[30] I
a[31] I
a[3] I
a[4] I
a[5] I
a[6] I
a[7] I
a[8] I
a[9] I
b[0] I
b[10] I
b[11] I
b[12] I
b[13] I
b[14] I
b[15] I
b[16] I
b[17] I
b[18] I
b[19] I
b[1] I
b[20] I
b[21] I
b[22] I
b[23] I
b[24] I
b[25] I
b[26] I
b[27] I
b[28] I
b[29] I
b[2] I
b[30] I
b[31] I
b[3] I
b[4] I
b[5] I
b[6] I
b[7] I
b[8] I
b[9] I
clk I
z O

*D_NET *1 0.00067964
*CONN
*P a[0] I
*I *1342:A I *D sky130_fd_sc_hd__clkbuf_1
*CAP
1 a[0] 0.000294946
2 *1342:A 0.000294946
3 *1342:A *1345:A 8.97484e-05
*RES
1 a[0] *1342:A 48.9255 
*END

*D_NET *2 0.00090229
*CONN
*P a[10] I
*I *1353:A I *D sky130_fd_sc_hd__clkbuf_1
*CAP
1 a[10] 0.000449289
2 *1353:A 0.000449289
3 *1353:A *1366:A 0
4 *1353:A *1369:A 0
5 *1353:A *210:10 3.7122e-06
*RES
1 a[10] *1353:A 47.3214 
*END

*D_NET *3 0.000901682
*CONN
*P a[11] I
*I *1364:A I *D sky130_fd_sc_hd__clkbuf_1
*CAP
1 a[11] 0.000450841
2 *1364:A 0.000450841
3 *1364:A *1370:A 0
*RES
1 a[11] *1364:A 47.3214 
*END

*D_NET *4 0.000482971
*CONN
*P a[12] I
*I *1375:A I *D sky130_fd_sc_hd__clkbuf_1
*CAP
1 a[12] 0.000196611
2 *1375:A 0.000196611
3 *1375:A *1372:A 8.97484e-05
*RES
1 a[12] *1375:A 47.1648 
*END

*D_NET *5 0.000738204
*CONN
*P a[13] I
*I *1386:A I *D sky130_fd_sc_hd__clkbuf_1
*CAP
1 a[13] 0.000281726
2 *1386:A 0.000281726
3 *1386:A *1372:A 8.73764e-05
4 *1386:A *1374:A 8.73764e-05
*RES
1 a[13] *1386:A 48.9255 
*END

*D_NET *6 0.000670762
*CONN
*P a[14] I
*I *1397:A I *D sky130_fd_sc_hd__clkbuf_1
*CAP
1 a[14] 0.000244503
2 *1397:A 0.000244503
3 *1397:A *1371:A 8.97484e-05
4 *1397:A *1373:A 8.73764e-05
5 *1397:A *243:8 4.6318e-06
*RES
1 a[14] *1397:A 48.5734 
*END

*D_NET *7 0.000532589
*CONN
*P a[15] I
*I *1403:A I *D sky130_fd_sc_hd__clkbuf_1
*CAP
1 a[15] 0.000180774
2 *1403:A 0.000180774
3 *1403:A *1299:A_N 0
4 *1403:A *1373:A 8.97484e-05
5 *1403:A *1374:A 8.12933e-05
*RES
1 a[15] *1403:A 47.5169 
*END

*D_NET *8 0.000618748
*CONN
*P a[16] I
*I *1404:A I *D sky130_fd_sc_hd__buf_1
*CAP
1 a[16] 0.000284795
2 *1404:A 0.000284795
3 *1404:A *1376:A 2.79122e-05
4 *1404:A *1388:A 2.12457e-05
*RES
1 a[16] *1404:A 49.8062 
*END

*D_NET *9 0.00103304
*CONN
*P a[17] I
*I *1405:A I *D sky130_fd_sc_hd__clkbuf_1
*CAP
1 a[17] 0.000516519
2 *1405:A 0.000516519
3 *1405:A *1343:A 0
*RES
1 a[17] *1405:A 49.3307 
*END

*D_NET *10 0.00094956
*CONN
*P a[18] I
*I *1343:A I *D sky130_fd_sc_hd__clkbuf_1
*CAP
1 a[18] 0.00047478
2 *1343:A 0.00047478
3 *1343:A *1377:A 0
4 *1405:A *1343:A 0
*RES
1 a[18] *1343:A 48.3779 
*END

*D_NET *11 0.00103304
*CONN
*P a[19] I
*I *1344:A I *D sky130_fd_sc_hd__clkbuf_1
*CAP
1 a[19] 0.000516519
2 *1344:A 0.000516519
3 *1344:A *1377:A 0
4 *1344:A *1378:A 0
*RES
1 a[19] *1344:A 49.3307 
*END

*D_NET *12 0.000728255
*CONN
*P a[1] I
*I *1345:A I *D sky130_fd_sc_hd__clkbuf_1
*CAP
1 a[1] 0.000275565
2 *1345:A 0.000275565
3 *1345:A *1357:A 8.73764e-05
4 *1342:A *1345:A 8.97484e-05
*RES
1 a[1] *1345:A 49.2777 
*END

*D_NET *13 0.00100427
*CONN
*P a[20] I
*I *1346:A I *D sky130_fd_sc_hd__clkbuf_1
*CAP
1 a[20] 0.000502134
2 *1346:A 0.000502134
3 *1346:A z 0
4 *1346:A *1347:A 0
*RES
1 a[20] *1346:A 48.2743 
*END

*D_NET *14 0.00100427
*CONN
*P a[21] I