*SPEF "ieee 1481-1999"
*DESIGN "comp32"
*DATE "16:55:11 Thursday May 09, 2024"
*VENDOR "The OpenROAD Project"
*PROGRAM "OpenROAD"
*VERSION "d423155d69de7f683a23f6916ead418a615ad4ad"
*DESIGN_FLOW "NAME_SCOPE LOCAL" "PIN_CAP NONE"
*DIVIDER /
*DELIMITER :
*BUS_DELIMITER []
*T_UNIT 1 NS
*C_UNIT 1 PF
*R_UNIT 1 OHM
*L_UNIT 1 HENRY

*NAME_MAP
*3 a[0]
*4 a[10]
*5 a[11]
*6 a[12]
*7 a[13]
*8 a[14]
*9 a[15]
*10 a[16]
*11 a[17]
*12 a[18]
*13 a[19]
*14 a[1]
*15 a[20]
*16 a[21]
*17 a[22]
*18 a[23]
*19 a[24]
*20 a[25]
*21 a[26]
*22 a[27]
*23 a[28]
*24 a[29]
*25 a[2]
*26 a[30]
*27 a[31]
*28 a[3]
*29 a[4]
*30 a[5]
*31 a[6]
*32 a[7]
*33 a[8]
*34 a[9]
*35 b[0]
*36 b[10]
*37 b[11]
*38 b[12]
*39 b[13]
*40 b[14]
*41 b[15]
*42 b[16]
*43 b[17]
*44 b[18]
*45 b[19]
*46 b[1]
*47 b[20]
*48 b[21]
*49 b[22]
*50 b[23]
*51 b[24]
*52 b[25]
*53 b[26]
*54 b[27]
*55 b[28]
*56 b[29]
*57 b[2]
*58 b[30]
*59 b[31]
*60 b[3]
*61 b[4]
*62 b[5]
*63 b[6]
*64 b[7]
*65 b[8]
*66 b[9]
*67 clk
*68 z
*69 _000_
*70 _001_
*71 _002_
*72 _003_
*73 _004_
*74 _005_
*75 _006_
*76 _007_
*77 _008_
*78 _009_
*79 _010_
*80 _011_
*81 _012_
*82 _013_
*83 _014_
*84 _015_
*85 _016_
*86 _017_
*87 _018_
*88 _019_
*89 _020_
*90 _021_
*91 _022_
*92 _023_
*93 _024_
*94 _025_
*95 _026_
*96 _027_
*97 _028_
*98 _029_
*99 _030_
*100 _031_
*101 _032_
*102 _033_
*103 _034_
*104 _035_
*105 _036_
*106 _037_
*107 _038_
*108 _039_
*109 _040_
*110 _041_
*111 _042_
*112 _043_
*113 _044_
*114 _045_
*115 _046_
*116 _047_
*117 _048_
*118 _049_
*119 _050_
*120 _051_
*121 _052_
*122 _053_
*123 _054_
*124 _055_
*125 _056_
*126 _057_
*127 _058_
*128 _059_
*129 _060_
*130 _061_
*131 _062_
*132 _063_
*133 _064_
*134 _065_
*135 _066_
*136 _067_
*137 _068_
*138 _069_
*139 _070_
*140 _071_
*141 _072_
*142 _073_
*143 _074_
*144 _075_
*145 _076_
*146 _077_
*147 _078_
*148 _079_
*149 _080_
*150 _081_
*151 _082_
*152 _083_
*153 _084_
*154 _085_
*155 _086_
*156 _087_
*157 _088_
*158 _089_
*159 _090_
*160 _091_
*161 _092_
*162 _093_
*163 _094_
*164 _095_
*165 _096_
*166 _097_
*167 _098_
*168 _099_
*169 _100_
*170 _101_
*171 _102_
*172 _103_
*173 _104_
*174 _105_
*175 _106_
*176 _107_
*177 _108_
*178 _109_
*179 _110_
*180 _111_
*181 _112_
*182 _113_
*183 net1
*184 net10
*185 net11
*186 net12
*187 net13
*188 net14
*189 net15
*190 net16
*191 net17
*192 net18
*193 net19
*194 net2
*195 net20
*196 net21
*197 net22
*198 net23
*199 net24
*200 net25
*201 net26
*202 net27
*203 net28
*204 net29
*205 net3
*206 net30
*207 net31
*208 net32
*209 net33
*210 net34
*211 net35
*212 net36
*213 net37
*214 net38
*215 net39
*216 net4
*217 net40
*218 net41
*219 net42
*220 net43
*221 net44
*222 net45
*223 net46
*224 net47
*225 net48
*226 net49
*227 net5
*228 net50
*229 net51
*230 net52
*231 net53
*232 net54
*233 net55
*234 net56
*235 net57
*236 net58
*237 net59
*238 net6
*239 net60
*240 net61
*241 net62
*242 net63
*243 net64
*244 net65
*245 net7
*246 net8
*247 net9
*248 FILLER_0_0_20
*249 FILLER_0_0_35
*250 FILLER_0_0_57
*251 FILLER_0_0_6
*252 FILLER_0_0_90
*253 FILLER_0_10_26
*254 FILLER_0_10_29
*255 FILLER_0_10_41
*256 FILLER_0_10_53
*257 FILLER_0_10_65
*258 FILLER_0_10_83
*259 FILLER_0_11_22
*260 FILLER_0_11_34
*261 FILLER_0_11_46
*262 FILLER_0_11_54
*263 FILLER_0_11_57
*264 FILLER_0_11_6
*265 FILLER_0_11_69
*266 FILLER_0_11_77
*267 FILLER_0_12_17
*268 FILLER_0_12_25
*269 FILLER_0_12_29
*270 FILLER_0_12_3
*271 FILLER_0_12_41
*272 FILLER_0_12_53
*273 FILLER_0_12_65
*274 FILLER_0_12_71
*275 FILLER_0_12_85
*276 FILLER_0_13_20
*277 FILLER_0_13_29
*278 FILLER_0_13_3
*279 FILLER_0_13_33
*280 FILLER_0_13_52
*281 FILLER_0_13_57
*282 FILLER_0_13_63
*283 FILLER_0_13_79
*284 FILLER_0_13_88
*285 FILLER_0_14_3
*286 FILLER_0_14_36
*287 FILLER_0_14_63
*288 FILLER_0_14_76
*289 FILLER_0_14_91
*290 FILLER_0_15_16
*291 FILLER_0_15_26
*292 FILLER_0_15_29
*293 FILLER_0_15_37
*294 FILLER_0_15_41
*295 FILLER_0_15_55
*296 FILLER_0_15_57
*297 FILLER_0_15_62
*298 FILLER_0_15_9
*299 FILLER_0_15_90
*300 FILLER_0_1_47
*301 FILLER_0_1_64
*302 FILLER_0_1_7
*303 FILLER_0_1_79
*304 FILLER_0_1_91
*305 FILLER_0_2_23
*306 FILLER_0_2_27
*307 FILLER_0_2_29
*308 FILLER_0_2_3
*309 FILLER_0_2_49
*310 FILLER_0_2_61
*311 FILLER_0_2_79
*312 FILLER_0_2_85
*313 FILLER_0_3_25
*314 FILLER_0_3_3
*315 FILLER_0_3_37
*316 FILLER_0_3_49
*317 FILLER_0_3_55
*318 FILLER_0_3_57
*319 FILLER_0_3_69
*320 FILLER_0_3_88
*321 FILLER_0_4_22
*322 FILLER_0_4_29
*323 FILLER_0_4_53
*324 FILLER_0_4_65
*325 FILLER_0_4_82
*326 FILLER_0_4_88
*327 FILLER_0_5_13
*328 FILLER_0_5_17
*329 FILLER_0_5_21
*330 FILLER_0_5_3
*331 FILLER_0_5_33
*332 FILLER_0_5_49
*333 FILLER_0_5_55
*334 FILLER_0_5_57
*335 FILLER_0_5_74
*336 FILLER_0_5_78
*337 FILLER_0_5_88
*338 FILLER_0_6_14
*339 FILLER_0_6_23
*340 FILLER_0_6_27
*341 FILLER_0_6_29
*342 FILLER_0_6_41
*343 FILLER_0_6_49
*344 FILLER_0_6_55
*345 FILLER_0_6_6
*346 FILLER_0_6_72
*347 FILLER_0_7_18
*348 FILLER_0_7_30
*349 FILLER_0_7_6
*350 FILLER_0_7_69
*351 FILLER_0_7_75
*352 FILLER_0_7_88
*353 FILLER_0_8_15
*354 FILLER_0_8_21
*355 FILLER_0_8_25
*356 FILLER_0_8_3
*357 FILLER_0_8_41
*358 FILLER_0_8_53
*359 FILLER_0_8_57
*360 FILLER_0_8_63
*361 FILLER_0_8_68
*362 FILLER_0_8_80
*363 FILLER_0_8_85
*364 FILLER_0_9_12
*365 FILLER_0_9_16
*366 FILLER_0_9_24
*367 FILLER_0_9_35
*368 FILLER_0_9_47
*369 FILLER_0_9_55
*370 FILLER_0_9_57
*371 FILLER_0_9_69
*372 FILLER_0_9_77
*373 PHY_EDGE_ROW_0_Left_16
*374 PHY_EDGE_ROW_0_Right_0
*375 PHY_EDGE_ROW_10_Left_26
*376 PHY_EDGE_ROW_10_Right_10
*377 PHY_EDGE_ROW_11_Left_27
*378 PHY_EDGE_ROW_11_Right_11
*379 PHY_EDGE_ROW_12_Left_28
*380 PHY_EDGE_ROW_12_Right_12
*381 PHY_EDGE_ROW_13_Left_29
*382 PHY_EDGE_ROW_13_Right_13
*383 PHY_EDGE_ROW_14_Left_30
*384 PHY_EDGE_ROW_14_Right_14
*385 PHY_EDGE_ROW_15_Left_31
*386 PHY_EDGE_ROW_15_Right_15
*387 PHY_EDGE_ROW_1_Left_17
*388 PHY_EDGE_ROW_1_Right_1
*389 PHY_EDGE_ROW_2_Left_18
*390 PHY_EDGE_ROW_2_Right_2
*391 PHY_EDGE_ROW_3_Left_19
*392 PHY_EDGE_ROW_3_Right_3
*393 PHY_EDGE_ROW_4_Left_20
*394 PHY_EDGE_ROW_4_Right_4
*395 PHY_EDGE_ROW_5_Left_21
*396 PHY_EDGE_ROW_5_Right_5
*397 PHY_EDGE_ROW_6_Left_22
*398 PHY_EDGE_ROW_6_Right_6
*399 PHY_EDGE_ROW_7_Left_23
*400 PHY_EDGE_ROW_7_Right_7
*401 PHY_EDGE_ROW_8_Left_24
*402 PHY_EDGE_ROW_8_Right_8
*403 PHY_EDGE_ROW_9_Left_25
*404 PHY_EDGE_ROW_9_Right_9
*405 TAP_TAPCELL_ROW_0_32
*406 TAP_TAPCELL_ROW_0_33
*407 TAP_TAPCELL_ROW_0_34
*408 TAP_TAPCELL_ROW_10_48
*409 TAP_TAPCELL_ROW_10_49
*410 TAP_TAPCELL_ROW_11_50
*411 TAP_TAPCELL_ROW_12_51
*412 TAP_TAPCELL_ROW_12_52
*413 TAP_TAPCELL_ROW_13_53
*414 TAP_TAPCELL_ROW_14_54
*415 TAP_TAPCELL_ROW_14_55
*416 TAP_TAPCELL_ROW_15_56
*417 TAP_TAPCELL_ROW_15_57
*418 TAP_TAPCELL_ROW_15_58
*419 TAP_TAPCELL_ROW_1_35
*420 TAP_TAPCELL_ROW_2_36
*421 TAP_TAPCELL_ROW_2_37
*422 TAP_TAPCELL_ROW_3_38
*423 TAP_TAPCELL_ROW_4_39
*424 TAP_TAPCELL_ROW_4_40
*425 TAP_TAPCELL_ROW_5_41
*426 TAP_TAPCELL_ROW_6_42
*427 TAP_TAPCELL_ROW_6_43
*428 TAP_TAPCELL_ROW_7_44
*429 TAP_TAPCELL_ROW_8_45
*430 TAP_TAPCELL_ROW_8_46
*431 TAP_TAPCELL_ROW_9_47
*432 _114_
*433 _115_
*434 _116_
*435 _117_
*436 _118_
*437 _119_
*438 _120_
*439 _121_
*440 _122_
*441 _123_
*442 _124_
*443 _125_
*444 _126_
*445 _127_
*446 _128_
*447 _129_
*448 _130_
*449 _131_
*450 _132_
*451 _133_
*452 _134_
*453 _135_
*454 _136_
*455 _137_
*456 _138_
*457 _139_
*458 _140_
*459 _141_
*460 _142_
*461 _143_
*462 _144_
*463 _145_
*464 _146_
*465 _147_
*466 _148_
*467 _149_
*468 _150_
*469 _151_
*470 _152_
*471 _153_
*472 _154_
*473 _155_
*474 _156_
*475 _157_
*476 _158_
*477 _159_
*478 _160_
*479 _161_
*480 _162_
*481 _163_
*482 _164_
*483 _165_
*484 _166_
*485 _167_
*486 _168_
*487 _169_
*488 _170_
*489 _171_
*490 _172_
*491 _173_
*492 _174_
*493 _175_
*494 _176_
*495 _177_
*496 _178_
*497 _179_
*498 _180_
*499 _181_
*500 _182_
*501 _183_
*502 _184_
*503 _185_
*504 _186_
*505 _187_
*506 _188_
*507 _189_
*508 _190_
*509 _191_
*510 _192_
*511 _193_
*512 _194_
*513 _195_
*514 _196_
*515 _197_
*516 _198_
*517 _199_
*518 _200_
*519 _201_
*520 _202_
*521 _203_
*522 _204_
*523 _205_
*524 _206_
*525 _207_
*526 _208_
*527 _209_
*528 _210_
*529 _211_
*530 _212_
*531 _213_
*532 _214_
*533 _215_
*534 _216_
*535 _217_
*536 _218_
*537 _219_
*538 _220_
*539 _221_
*540 _222_
*541 _223_
*542 _224_
*543 _225_
*544 _226_
*545 _227_
*546 _228_
*547 input1
*548 input10
*549 input11
*550 input12
*551 input13
*552 input14
*553 input15
*554 input16
*555 input17
*556 input18
*557 input19
*558 input2
*559 input20
*560 input21
*561 input22
*562 input23
*563 input24
*564 input25
*565 input26
*566 input27
*567 input28
*568 input29
*569 input3
*570 input30
*571 input31
*572 input32
*573 input33
*574 input34
*575 input35
*576 input36
*577 input37
*578 input38
*579 input39
*580 input4
*581 input40
*582 input41
*583 input42
*584 input43
*585 input44
*586 input45
*587 input46
*588 input47
*589 input48
*590 input49
*591 input5
*592 input50
*593 input51
*594 input52
*595 input53
*596 input54
*597 input55
*598 input56
*599 input57
*600 input58
*601 input59
*602 input6
*603 input60
*604 input61
*605 input62
*606 input63
*607 input64
*608 input7
*609 input8
*610 input9
*611 output65

*PORTS
a[0] I
a[10] I
a[11] I
a[12] I
a[13] I
a[14] I
a[15] I
a[16] I
a[17] I
a[18] I
a[19] I
a[1] I
a[20] I
a[21] I
a[22] I
a[23] I
a[24] I
a[25] I
a[26] I
a[27] I
a[28] I
a[29] I
a[2] I
a[30] I
a[31] I
a[3] I
a[4] I
a[5] I
a[6] I
a[7] I
a[8] I
a[9] I
b[0] I
b[10] I
b[11] I
b[12] I
b[13] I
b[14] I
b[15] I
b[16] I
b[17] I
b[18] I
b[19] I
b[1] I
b[20] I
b[21] I
b[22] I
b[23] I
b[24] I
b[25] I
b[26] I
b[27] I
b[28] I
b[29] I
b[2] I
b[30] I
b[31] I
b[3] I
b[4] I
b[5] I
b[6] I
b[7] I
b[8] I
b[9] I
clk I
z O

*D_NET *3 0.00301689
*CONN
*P a[0] I
*I *547:A I *D sky130_fd_sc_hd__clkbuf_1
*CAP
1 a[0] 0.000790277
2 *547:A 0.000790277
3 *547:A *497:B 0
4 *547:A *528:A1 6.02174e-05
5 *547:A *528:A2 6.55328e-05
6 *547:A *565:A 0.00123073
7 *547:A *579:A 6.05593e-05
8 *547:A *597:A 0
9 *547:A *602:A 1.92979e-05
10 *547:A *238:10 0
*RES
1 a[0] *547:A 21.3652 
*END

*D_NET *4 0.00228063
*CONN
*P a[10] I
*I *558:A I *D sky130_fd_sc_hd__clkbuf_1
*CAP
1 a[10] 0.000944847
2 *558:A 0.000944847
3 *558:A *447:A 0.000237243
4 *558:A *520:B1 0
5 *558:A *587:A 0
6 *558:A *242:8 0.000118294
7 *558:A *243:8 3.54025e-05
*RES
1 a[10] *558:A 20.745 
*END

*D_NET *5 0.00110459
*CONN
*P a[11] I
*I *569:A I *D sky130_fd_sc_hd__clkbuf_1
*CAP
1 a[11] 0.00040611
2 *569:A 0.00040611
3 *569:A *517:A_N 3.54536e-05
4 *569:A *518:D 9.27255e-06
5 *569:A *574:A 0
6 *569:A *575:A 0.000224613
7 *569:A *205:8 2.30292e-05
8 *569:A *211:12 0
*RES
1 a[11] *569:A 11.49 
*END

*D_NET *6 0.00326678
*CONN
*P a[12] I
*I *580:A I *D sky130_fd_sc_hd__clkbuf_1
*CAP
1 a[12] 0.000884273
2 *580:A 0.000884273
3 *580:A *478:B2 0
4 *580:A *551:A 0
5 *580:A *552:A 0.000519425
6 *580:A *576:A 0.000512496
7 *580:A *584:A 0.000331886
8 *580:A *82:12 0
9 *580:A *188:12 0.000134429
*RES
1 a[12] *580:A 16.6638 
*END

*D_NET *7 0.000547388
*CONN
*P a[13] I
*I *591:A I *D sky130_fd_sc_hd__clkbuf_1
*CAP
1 a[13] 0.000173425
2 *591:A 0.000173425
3 *591:A *549:A 6.67215e-05
4 *591:A *577:A 7.32103e-05
5 *591:A *213:8 1.52184e-05
6 *591:A *213:23 4.53866e-05
*RES
1 a[13] *591:A 5.8085 
*END

*D_NET *8 0.000407661
*CONN
*P a[14] I
*I *602:A I *D sky130_fd_sc_hd__clkbuf_1
*CAP
1 a[14] 0.000125441
2 *602:A 0.000125441
3 *602:A *550:A 6.72455e-05
4 *602:A *578:A 7.02344e-05
5 *602:A *597:A 0
6 *547:A *602:A 1.92979e-05
*RES
1 a[14] *602:A 4.7885 
*END

*D_NET *9 0.000494178
*CONN
*P a[15] I
*I *608:A I *D sky130_fd_sc_hd__clkbuf_1
*CAP
1 a[15] 0.000150788
2 *608:A 0.000150788
3 *608:A *505:B 4.74882e-05
4 *608:A *548:A 7.32103e-05
5 *608:A *578:A 6.74652e-05
6 *608:A *214:8 4.43871e-06
*RES
1 a[15] *608:A 5.5535 
*END

*D_NET *10 0.000535548
*CONN
*P a[16] I
*I *609:A I *D sky130_fd_sc_hd__clkbuf_1
*CAP
1 a[16] 0.000242276
2 *609:A 0.000242276
3 *609:A *581:A 2.85068e-05
4 *609:A *599:A 2.24901e-05
*RES
1 a[16] *609:A 6.8343 
*END

*D_NET *11 0.00112466
*CONN
*P a[17] I
*I *610:A I *D sky130_fd_sc_hd__clkbuf_1
*CAP
1 a[17] 0.000395934
2 *610:A 0.000395934
3 *610:A *564:A 0.000332797
4 *610:A *570:A 0
5 *610:A *601:A 0
*RES
1 a[17] *610:A 11.55 
*END

*D_NET *12 0.000470745
*CONN
*P a[18] I
*I *548:A I *D sky130_fd_sc_hd__clkbuf_1
*CAP
1 a[18] 0.000128804
2 *548:A 0.000128804
3 *548:A *583:A 7.32103e-05
4 *548:A *113:16 6.67166e-05
5 *608:A *548:A 7.32103e-05
*RES
1 a[18] *548:A 5.2985 
*END

*D_NET *13 0.000414468
*CONN
*P a[19] I
*I *549:A I *D sky130_fd_sc_hd__clkbuf_1
*CAP
1 a[19] 0.000124403
2 *549:A 0.000124403
3 *549:A *506:B 2.32724e-05
4 *549:A *583:A 7.56675e-05
5 *591:A *549:A 6.67215e-05
*RES
1 a[19] *549:A 5.0435 
*END

*D_NET *14 0.0024292
*CONN
*P a[1] I
*I *550:A I *D sky130_fd_sc_hd__clkbuf_1
*CAP
1 a[1] 0.000972495
2 *550:A 0.000972495
3 *550:A *573:A 0.000131726
4 *550:A *579:A 0
5 *550:A *585:A 0.000248437
6 *550:A *604:A 5.53249e-06
7 *550:A *186:16 3.12639e-05
8 *602:A *550:A 6.72455e-05
*RES
1 a[1] *550:A 7.69497 
*END

*D_NET *15 0.00116239
*CONN
*P a[20] I
*I *551:A I *D sky130_fd_sc_hd__clkbuf_1
*CAP
1 a[20] 0.000453007
2 *551:A 0.000453007
3 *551:A *438:A 2.75229e-05
4 *551:A *478:B2 1.52184e-05
5 *551:A *479:B 8.49205e-05
6 *551:A *516:B 0
7 *551:A *552:A 0
8 *551:A *586:A 0
9 *551:A *155:12 2.77283e-05
10 *551:A *187:6 8.65961e-05
11 *551:A *188:12 1.4389e-05
12 *580:A *551:A 0
*RES
1 a[20] *551:A 12.18 
*END

*D_NET *16 0.0013128
*CONN
*P a[21] I
*I *552:A I *D sky130_fd_sc_hd__clkbuf_1
*CAP
1 a[21] 0.000225975
2 *552:A 0.000225975
3 *552:A *575:A 0
4 *552:A *576:A 0.000337777
5 *552:A *188:12 3.64998e-06
6 *551:A *552:A 0
7 *580:A *552:A 0.000519425
*RES
1 a[21] *552:A 10.695 
*END

*D_NET *17 0.003153
*CONN
*P a[22] I
*I *553:A I *D sky130_fd_sc_hd__clkbuf_1
*CAP
1 a[22] 0.00128416
2 *553:A 0.00128416
3 *553:A *555:A 0.000571238
4 *553:A *592:A 0
5 *553:A *193:12 1.34503e-05
*RES
1 a[22] *553:A 24.195 
*END

*D_NET *18 0.00104027
*CONN
*P a[23] I
*I *554:A I *D sky130_fd_sc_hd__clkbuf_1
*CAP
1 a[23] 0.000447274
2 *554:A 0.000447274
3 *554:A *473:B 2.97004e-06
4 *554:A *476:A_N 0.00012657
5 *554:A *588:A 0
6 *554:A *589:A 0
7 *554:A *224:6 1.61831e-05
*RES
1 a[23] *554:A 11.73 
*END

*D_NET *19 0.00257509
*CONN
*P a[24] I
*I *555:A I *D sky130_fd_sc_hd__clkbuf_1
*CAP
1 a[24] 0.000684892
2 *555:A 0.000684892
3 *555:A z 9.17274e-05
4 *555:A *461:A_N 0.000316421
5 *555:A *556:A 0
6 *555:A *592:A 0
7 *555:A *593:A 8.01655e-05
8 *555:A *193:12 6.53624e-05
9 *555:A *229:12 8.03926e-05
10 *553:A *555:A 0.000571238
*RES
1 a[24] *555:A 20.13 
*END

*D_NET *20 0.000809069
*CONN
*P a[25] I
*I *556:A I *D sky130_fd_sc_hd__buf_1
*CAP
1 a[25] 0.000404535
2 *556:A 0.000404535
3 *556:A *468:A1 0
4 *556:A *590:A 0
5 *556:A *593:A 0
6 *555:A *556:A 0
*RES
1 a[25] *556:A 10.35 
*END

*D_NET *21 0.0022032
*CONN
*P a[26] I
*I *557:A I *D sky130_fd_sc_hd__buf_1
*CAP
1 a[26] 0.000882921
2 *557:A 0.000882921
3 *557:A *468:A1 0
4 *557:A *469:B 0.000159747
5 *557:A *472:B 0
6 *557:A *473:B 0
7 *557:A *476:B 0
8 *557:A *588:A 0.000105158
9 *557:A *590:A 0
10 *557:A *593:A 7.93843e-05
11 *557:A *611:A 0
12 *557:A *189:12 9.30717e-05
13 *557:A *190:12 0
*RES
1 a[26] *557:A 11.0538 
*END

*D_NET *22 0.00145117
*CONN
*P a[27] I
*I *559:A I *D sky130_fd_sc_hd__clkbuf_1
*CAP
1 a[27] 0.000609573
2 *559:A 0.000609573
3 *559:A z 6.05593e-05
4 *559:A *460:A_N 0
5 *559:A *463:A_N 0
6 *559:A *463:B 1.12643e-05
7 *559:A *594:A 3.14094e-05
8 *559:A *599:A 0
9 *559:A *195:8 0.000128793
*RES
1 a[27] *559:A 12.6652 
*END

*D_NET *23 0.00215071
*CONN
*P a[28] I
*I *560:A I *D sky130_fd_sc_hd__clkbuf_1
*CAP
1 a[28] 0.000726826
2 *560:A 0.000726826
3 *560:A *432:A 4.26354e-05
4 *560:A *448:A 0
5 *560:A *561:A 8.20792e-05
6 *560:A *564:A 0.00022195
7 *560:A *567:A 0
8 *560:A *603:A 0.000350392
*RES
1 a[28] *560:A 13.0858 
*END

*D_NET *24 0.00205318
*CONN
*P a[29] I
*I *561:A I *D sky130_fd_sc_hd__buf_1
*CAP
1 a[29] 0.000802596
2 *561:A 0.000802596
3 *561:A *434:A 6.5525e-05
4 *561:A *503:B 0
5 *561:A *563:A 3.14094e-05
6 *561:A *564:A 0.000195191
7 *561:A *567:A 0
8 *561:A *596:A 0
9 *561:A *603:A 7.21296e-06
10 *561:A *196:12 6.65717e-05
11 *561:A *239:10 0
12 *560:A *561:A 8.20792e-05
*RES
1 a[29] *561:A 10.879 
*END

*D_NET *25 0.00137684
*CONN
*P a[2] I
*I *562:A I *D sky130_fd_sc_hd__clkbuf_1
*CAP
1 a[2] 0.000555622
2 *562:A 0.000555622
3 *562:A *494:B 1.16578e-05
4 *562:A *585:A 0
5 *562:A *600:A 4.99619e-05
6 *562:A *604:A 0
7 *562:A *236:8 0.000203971
*RES
1 a[2] *562:A 13.59 
*END

*D_NET *26 0.000785329
*CONN
*P a[30] I
*I *563:A I *D sky130_fd_sc_hd__buf_1
*CAP
1 a[30] 0.000350695
2 *563:A 0.000350695
3 *563:A *596:A 2.24901e-05
4 *563:A *232:10 3.00381e-05
5 *561:A *563:A 3.14094e-05
*RES
1 a[30] *563:A 8.7393 
*END

*D_NET *27 0.00256833
*CONN
*P a[31] I
*I *564:A I *D sky130_fd_sc_hd__clkbuf_1
*CAP
1 a[31] 0.000909194
2 *564:A 0.000909194
3 *564:A *601:A 0
4 *560:A *564:A 0.00022195
5 *561:A *564:A 0.000195191
6 *610:A *564:A 0.000332797
*RES
1 a[31] *564:A 10.3396 
*END

*D_NET *28 0.00284636
*CONN
*P a[3] I
*I *565:A I *D sky130_fd_sc_hd__clkbuf_1
*CAP
1 a[3] 0.000784524
2 *565:A 0.000784524
3 *565:A *497:A_N 2.66586e-05
4 *565:A *573:A 0
5 *565:A *578:A 9.58678e-06
6 *565:A *201:18 5.4155e-06
7 *565:A *221:10 4.9253e-06
8 *565:A *238:10 0
9 *547:A *565:A 0.00123073
*RES
1 a[3] *565:A 20.955 
*END

*D_NET *29 0.000901773
*CONN
*P a[4] I
*I *566:A I *D sky130_fd_sc_hd__clkbuf_1
*CAP
1 a[4] 0.000425905
2 *566:A 0.000425905
3 *566:A *432:A 4.99619e-05
4 *566:A *596:A 0
5 *566:A *603:A 0
*RES
1 a[4] *566:A 10.86 
*END

*D_NET *30 0.00101812
*CONN
*P a[5] I
*I *567:A I *D sky130_fd_sc_hd__clkbuf_1
*CAP
1 a[5] 0.000494042
2 *567:A 0.000494042
3 *567:A *432:A 3.00381e-05
4 *567:A *601:A 0
5 *567:A *603:A 0
6 *560:A *567:A 0
7 *561:A *567:A 0
*RES
1 a[5] *567:A 11.655 
*END

*D_NET *31 0.000843773
*CONN
*P a[6] I
*I *568:A I *D sky130_fd_sc_hd__clkbuf_1
*CAP
1 a[6] 0.000349038
2 *568:A 0.000349038
3 *568:A *573:A 0.000145697
4 *568:A *604:A 0
5 *568:A *605:A 0
*RES
1 a[6] *568:A 10.86 
*END

*D_NET *32 0.0012282
*CONN
*P a[7] I
*I *570:A I *D sky130_fd_sc_hd__clkbuf_1
*CAP
1 a[7] 0.000553551
2 *570:A 0.000553551
3 *570:A *491:A_N 4.82863e-05
4 *570:A *491:B 7.28154e-05
5 *570:A *605:A 0
6 *610:A *570:A 0
*RES
1 a[7] *570:A 13.245 
*END

*D_NET *33 0.00262114
*CONN
*P a[8] I
*I *571:A I *D sky130_fd_sc_hd__clkbuf_1
*CAP
1 a[8] 0.000863051
2 *571:A 0.000863051
3 *571:A *445:A 2.49909e-05
4 *571:A *533:B1 0.000160658
5 *571:A *575:A 0
6 *571:A *576:A 0.000263829
7 *571:A *587:A 0
8 *571:A *606:A 0.000101697
9 *571:A *117:12 3.47668e-05
10 *571:A *120:10 8.3243e-05
11 *571:A *164:10 0.000225853
*RES
1 a[8] *571:A 11.5621 
*END

*D_NET *34 0.000369128
*CONN
*P a[9] I
*I *572:A I *D sky130_fd_sc_hd__clkbuf_1
*CAP
1 a[9] 0.000110125
2 *572:A 0.000110125
3 *572:A *577:A 7.32103e-05
4 *572:A *607:A 7.56675e-05
*RES
1 a[9] *572:A 4.7885 
*END

*D_NET *35 0.00421074
*CONN
*P b[0] I
*I *573:A I *D sky130_fd_sc_hd__clkbuf_1
*CAP
1 b[0] 0.00135934
2 *573:A 0.00135934
3 *573:A *579:A 0.000199001
4 *573:A *585:A 0.000391483
5 *573:A *604:A 0.000138023
6 *573:A *99:12 2.87867e-05
7 *573:A *186:16 1.52491e-05
8 *573:A *201:18 0.000138175
9 *573:A *204:12 0.000141606
10 *573:A *221:10 0.000162311
11 *573:A *240:12 0
12 *550:A *573:A 0.000131726
13 *565:A *573:A 0
14 *568:A *573:A 0.000145697
*RES
1 b[0] *573:A 22.1532 
*END

*D_NET *36 0.00168029
*CONN
*P b[10] I
*I *574:A I *D sky130_fd_sc_hd__clkbuf_1
*CAP
1 b[10] 0.000544299
2 *574:A 0.000544299
3 *574:A *514:B 5.35679e-05
4 *574:A *517:A_N 0
5 *574:A *517:B 0.000158985
6 *574:A *532:A2 0
7 *574:A *575:A 0
8 *574:A *587:A 0
9 *574:A *118:10 0.000133722
10 *574:A *164:10 0.000237243
11 *574:A *194:14 8.17319e-06
12 *569:A *574:A 0
*RES
1 b[10] *574:A 14.475 
*END

*D_NET *37 0.00136551
*CONN
*P b[11] I
*I *575:A I *D sky130_fd_sc_hd__clkbuf_1
*CAP
1 b[11] 0.000520486
2 *575:A 0.000520486
3 *575:A *205:8 8.8266e-05
4 *575:A *211:12 1.16578e-05
5 *552:A *575:A 0
6 *569:A *575:A 0.000224613
7 *571:A *575:A 0
8 *574:A *575:A 0
*RES
1 b[11] *575:A 17.08 
*END

*D_NET *38 0.00275696
*CONN
*P b[12] I
*I *576:A I *D sky130_fd_sc_hd__buf_1
*CAP
1 b[12] 0.000742122
2 *576:A 0.000742122
3 *576:A *533:B1 4.40643e-05
4 *576:A *120:10 0.000114554
5 *552:A *576:A 0.000337777
6 *571:A *576:A 0.000263829
7 *580:A *576:A 0.000512496
*RES
1 b[12] *576:A 13.8952 
*END

*D_NET *39 0.000465306
*CONN
*P b[13] I
*I *577:A I *D sky130_fd_sc_hd__buf_1
*CAP
1 b[13] 0.000153591
2 *577:A 0.000153591
3 *577:A *213:8 1.17036e-05
4 *572:A *577:A 7.32103e-05
5 *591:A *577:A 7.32103e-05
*RES
1 b[13] *577:A 5.5535 
*END

*D_NET *40 0.000434444
*CONN
*P b[14] I
*I *578:A I *D sky130_fd_sc_hd__clkbuf_1
*CAP
1 b[14] 0.000143579
2 *578:A 0.000143579
3 *578:A *238:10 0
4 *565:A *578:A 9.58678e-06
5 *602:A *578:A 7.02344e-05
6 *608:A *578:A 6.74652e-05
*RES
1 b[14] *578:A 4.7885 
*END

*D_NET *41 0.00352338
*CONN
*P b[15] I
*I *579:A I *D sky130_fd_sc_hd__clkbuf_1
*CAP
1 b[15] 0.00163191
2 *579:A 0.00163191
3 *579:A *201:18 0
4 *547:A *579:A 6.05593e-05
5 *550:A *579:A 0
6 *573:A *579:A 0.000199001
*RES
1 b[15] *579:A 9.11897 
*END

*D_NET *42 0.000933176
*CONN
*P b[16] I
*I *581:A I *D sky130_fd_sc_hd__clkbuf_1
*CAP
1 b[16] 0.00043663
2 *581:A 0.00043663
3 *581:A *582:A 3.14094e-05
4 *581:A *595:A 0
5 *581:A *599:A 0
6 *581:A *235:10 0
7 *609:A *581:A 2.85068e-05
*RES
1 b[16] *581:A 6.98137 
*END

*D_NET *43 0.000903416
*CONN
*P b[17] I
*I *582:A I *D sky130_fd_sc_hd__clkbuf_1
*CAP
1 b[17] 0.000290049
2 *582:A 0.000290049
3 *582:A *595:A 0.000241947
4 *582:A *231:10 4.99619e-05
5 *581:A *582:A 3.14094e-05
*RES
1 b[17] *582:A 8.2293 
*END

*D_NET *44 0.000417753
*CONN
*P b[18] I
*I *583:A I *D sky130_fd_sc_hd__clkbuf_1
*CAP
1 b[18] 0.000112376
2 *583:A 0.000112376
3 *583:A *113:16 4.4123e-05
4 *548:A *583:A 7.32103e-05
5 *549:A *583:A 7.56675e-05
*RES
1 b[18] *583:A 5.0435 
*END

*D_NET *45 0.00368896
*CONN
*P b[19] I
*I *584:A I *D sky130_fd_sc_hd__buf_1
*CAP
1 b[19] 0.00121176
2 *584:A 0.00121176
3 *584:A *438:A 0.000121811
4 *584:A *546:CLK 0.000568574
5 *584:A *586:A 0.00024318
6 *580:A *584:A 0.000331886
*RES
1 b[19] *584:A 17.104 
*END

*D_NET *46 0.00341973
*CONN
*P b[1] I
*I *585:A I *D sky130_fd_sc_hd__clkbuf_1
*CAP
1 b[1] 0.000999299
2 *585:A 0.000999299
3 *585:A *494:A_N 0
4 *585:A *499:A_N 1.34361e-05
5 *585:A *604:A 4.196e-05
6 *585:A *99:12 2.67022e-05
7 *585:A *201:18 0.000627219
8 *585:A *240:12 7.18961e-05
9 *550:A *585:A 0.000248437
10 *562:A *585:A 0
11 *573:A *585:A 0.000391483
*RES
1 b[1] *585:A 15.0086 
*END

*D_NET *47 0.000874312
*CONN
*P b[20] I
*I *586:A I *D sky130_fd_sc_hd__clkbuf_1
*CAP
1 b[20] 0.000289938
2 *586:A 0.000289938
3 *586:A *438:A 4.82863e-05
4 *586:A *478:B2 0
5 *586:A *479:A 2.97004e-06
6 *551:A *586:A 0
7 *584:A *586:A 0.00024318
*RES
1 b[20] *586:A 10.35 
*END

*D_NET *48 0.00534107
*CONN
*P b[21] I
*I *587:A I *D sky130_fd_sc_hd__clkbuf_1
*CAP
1 b[21] 0.00226269
2 *587:A 0.00226269
3 *587:A *440:A 0.000435388
4 *587:A *471:B 9.08126e-05
5 *587:A *473:A 4.28208e-05
6 *587:A *474:A_N 0
7 *587:A *517:B 0
8 *587:A *606:A 0.000214527
9 *587:A *607:A 3.21435e-05
10 *558:A *587:A 0
11 *571:A *587:A 0
12 *574:A *587:A 0
*RES
1 b[21] *587:A 17.8396 
*END

*D_NET *49 0.000852763
*CONN
*P b[22] I
*I *588:A I *D sky130_fd_sc_hd__clkbuf_1
*CAP
1 b[22] 0.000373803
2 *588:A 0.000373803
3 *588:A *590:A 0
4 *554:A *588:A 0
5 *557:A *588:A 0.000105158
*RES
1 b[22] *588:A 10.35 
*END

*D_NET *50 0.000978387
*CONN
*P b[23] I
*I *589:A I *D sky130_fd_sc_hd__clkbuf_1
*CAP
1 b[23] 0.000424101
2 *589:A 0.000424101
3 *589:A *438:A 0
4 *589:A *473:A 5.88634e-05
5 *589:A *477:D 4.82919e-05
6 *589:A *542:B2 2.30292e-05
7 *589:A *546:CLK 0
8 *554:A *589:A 0
*RES
1 b[23] *589:A 11.31 
*END

*D_NET *51 0.000919433
*CONN
*P b[24] I
*I *590:A I *D sky130_fd_sc_hd__clkbuf_1
*CAP
1 b[24] 0.000437936
2 *590:A 0.000437936
3 *590:A *468:A1 4.18603e-06
4 *590:A *469:B 3.23663e-05
5 *590:A *226:8 7.00889e-06
6 *556:A *590:A 0
7 *557:A *590:A 0
8 *588:A *590:A 0
*RES
1 b[24] *590:A 11.145 
*END

*D_NET *52 0.00279079
*CONN
*P b[25] I
*I *592:A I *D sky130_fd_sc_hd__clkbuf_1
*CAP
1 b[25] 0.00129447
2 *592:A 0.00129447
3 *592:A z 0
4 *592:A *460:A_N 1.7386e-05
5 *592:A *464:A1 4.82863e-05
6 *592:A *464:A2 4.66108e-05
7 *592:A *464:B1 8.69182e-05
8 *592:A *469:A 2.65814e-06
9 *592:A *594:A 0
10 *592:A *229:12 0
11 *553:A *592:A 0
12 *555:A *592:A 0
*RES
1 b[25] *592:A 24.285 
*END

*D_NET *53 0.000676506
*CONN
*P b[26] I
*I *593:A I *D sky130_fd_sc_hd__clkbuf_1
*CAP
1 b[26] 0.00021374
2 *593:A 0.00021374
3 *593:A z 5.8219e-05
4 *593:A *468:A1 0
5 *593:A *192:10 0
6 *593:A *229:12 3.12569e-05
7 *555:A *593:A 8.01655e-05
8 *556:A *593:A 0
9 *557:A *593:A 7.93843e-05
*RES
1 b[26] *593:A 6.12177 
*END

*D_NET *54 0.000598264
*CONN
*P b[27] I
*I *594:A I *D sky130_fd_sc_hd__clkbuf_1
*CAP
1 b[27] 0.000272182
2 *594:A 0.000272182
3 *594:A *599:A 2.24901e-05
4 *559:A *594:A 3.14094e-05
5 *592:A *594:A 0
*RES
1 b[27] *594:A 7.0893 
*END

*D_NET *55 0.000924548
*CONN
*P b[28] I
*I *595:A I *D sky130_fd_sc_hd__clkbuf_1
*CAP
1 b[28] 0.000325596
2 *595:A 0.000325596
3 *595:A *538:A2 0
4 *595:A *596:A 0
5 *595:A *598:A 3.14094e-05
6 *595:A *231:10 0
7 *581:A *595:A 0
8 *582:A *595:A 0.000241947
*RES
1 b[28] *595:A 9.44543 
*END

*D_NET *56 0.000945407
*CONN
*P b[29] I
*I *596:A I *D sky130_fd_sc_hd__clkbuf_1
*CAP
1 b[29] 0.000397042
2 *596:A 0.000397042
3 *596:A *432:A 0
4 *596:A *598:A 2.24901e-05
5 *596:A *149:10 0.000106344
6 *596:A *232:10 0
7 *561:A *596:A 0
8 *563:A *596:A 2.24901e-05
9 *566:A *596:A 0
10 *595:A *596:A 0
*RES
1 b[29] *596:A 8.67177 
*END

*D_NET *57 0.00201186
*CONN
*P b[2] I
*I *597:A I *D sky130_fd_sc_hd__buf_1
*CAP
1 b[2] 0.000738425
2 *597:A 0.000738425
3 *597:A *495:B 0
4 *597:A *497:B 0.000383404
5 *597:A *498:B 1.20741e-05
6 *597:A *528:A1 8.71994e-05
7 *597:A *528:A2 4.64983e-05
8 *597:A *600:A 0
9 *597:A *233:8 0
10 *597:A *238:10 5.83121e-06
11 *547:A *597:A 0
12 *602:A *597:A 0
*RES
1 b[2] *597:A 17.49 
*END

*D_NET *58 0.000650422
*CONN
*P b[30] I
*I *598:A I *D sky130_fd_sc_hd__clkbuf_1
*CAP
1 b[30] 0.000298261
2 *598:A 0.000298261
3 *598:A *149:10 0
4 *598:A *149:12 0
5 *595:A *598:A 3.14094e-05
6 *596:A *598:A 2.24901e-05
*RES
1 b[30] *598:A 7.8543 
*END

*D_NET *59 0.000484563
*CONN
*P b[31] I
*I *599:A I *D sky130_fd_sc_hd__buf_1
*CAP
1 b[31] 0.000219791
2 *599:A 0.000219791
3 *559:A *599:A 0
4 *581:A *599:A 0
5 *594:A *599:A 2.24901e-05
6 *609:A *599:A 2.24901e-05
*RES
1 b[31] *599:A 5.35677 
*END

*D_NET *60 0.00107891
*CONN
*P b[3] I
*I *600:A I *D sky130_fd_sc_hd__clkbuf_1
*CAP
1 b[3] 0.000502958
2 *600:A 0.000502958
3 *600:A *236:8 2.30292e-05
4 *562:A *600:A 4.99619e-05
5 *597:A *600:A 0
*RES
1 b[3] *600:A 12 
*END

*D_NET *61 0.000968074
*CONN
*P b[4] I
*I *601:A I *D sky130_fd_sc_hd__clkbuf_1
*CAP
1 b[4] 0.000446838
2 *601:A 0.000446838
3 *601:A *432:A 7.43984e-05
4 *564:A *601:A 0
5 *567:A *601:A 0
6 *610:A *601:A 0
*RES
1 b[4] *601:A 11.55 
*END

*D_NET *62 0.00101919
*CONN
*P b[5] I
*I *603:A I *D sky130_fd_sc_hd__clkbuf_1
*CAP
1 b[5] 0.000305814
2 *603:A 0.000305814
3 *603:A *432:A 4.99619e-05
4 *560:A *603:A 0.000350392
5 *561:A *603:A 7.21296e-06
6 *566:A *603:A 0
7 *567:A *603:A 0
*RES
1 b[5] *603:A 10.86 
*END

*D_NET *63 0.000982275
*CONN
*P b[6] I
*I *604:A I *D sky130_fd_sc_hd__clkbuf_1
*CAP
1 b[6] 0.00039838
2 *604:A 0.00039838
3 *550:A *604:A 5.53249e-06
4 *562:A *604:A 0
5 *568:A *604:A 0
6 *573:A *604:A 0.000138023
7 *585:A *604:A 4.196e-05
*RES
1 b[6] *604:A 11.55 
*END

*D_NET *64 0.000974243
*CONN
*P b[7] I
*I *605:A I *D sky130_fd_sc_hd__clkbuf_1
*CAP
1 b[7] 0.000482439
2 *605:A 0.000482439
3 *605:A *491:A_N 4.43871e-06
4 *605:A *241:6 4.9253e-06
5 *568:A *605:A 0
6 *570:A *605:A 0
*RES
1 b[7] *605:A 11.655 
*END

*D_NET *65 0.00111821
*CONN
*P b[8] I
*I *606:A I *D sky130_fd_sc_hd__buf_1
*CAP
1 b[8] 0.000295921
2 *606:A 0.000295921
3 *606:A *447:A 7.06865e-05
4 *606:A *517:B 8.36191e-05
5 *606:A *607:A 5.58419e-05
6 *606:A *194:14 0
7 *571:A *606:A 0.000101697
8 *587:A *606:A 0.000214527
*RES
1 b[8] *606:A 7.5133 
*END

*D_NET *66 0.000507892
*CONN
*P b[9] I
*I *607:A I *D sky130_fd_sc_hd__buf_1
*CAP
1 b[9] 0.00017212
2 *607:A 0.00017212
3 *572:A *607:A 7.56675e-05
4 *587:A *607:A 3.21435e-05
5 *606:A *607:A 5.58419e-05
*RES
1 b[9] *607:A 4.7885 
*END

*D_NET *67 0.00269157
*CONN
*P clk I
*I *546:CLK I *D sky130_fd_sc_hd__dfxtp_1
*CAP
1 clk 0.000826088
2 *546:CLK 0.000826088
3 *546:CLK *439:A 0.000113494
4 *546:CLK *440:A 9.71819e-06
5 *546:CLK *474:A_N 8.40074e-05
6 *546:CLK *477:C 0
7 *546:CLK *479:A 0
8 *546:CLK *480:C 5.64143e-05
9 *546:CLK *546:D 2.38751e-05
10 *546:CLK *79:14 7.17811e-05
11 *546:CLK *84:10 0.000111532
12 *584:A *546:CLK 0.000568574
13 *589:A *546:CLK 0
*RES
1 clk *546:CLK 22.68 
*END

*D_NET *68 0.000817139
*CONN
*P z O
*I *611:X O *D sky130_fd_sc_hd__buf_2
*CAP
1 z 0.000303317
2 *611:X 0.000303317
3 *555:A z 9.17274e-05
4 *559:A z 6.05593e-05
5 *592:A z 0
6 *593:A z 5.8219e-05
*RES
1 *611:X z 6.89023 
*END

*D_NET *69 0.000794418
*CONN
*I *546:D I *D sky130_fd_sc_hd__dfxtp_1
*I *545:X O *D sky130_fd_sc_hd__o31a_1
*CAP
1 *546:D 0.000267303
2 *545:X 0.000267303
3 *546:D *545:A3 0.000235937
4 *546:CLK *546:D 2.38751e-05
*RES
1 *545:X *546:D 11.6587 
*END

*D_NET *70 0.00184287
*CONN
*I *540:A3 I *D sky130_fd_sc_hd__a41oi_1
*I *469:A I *D sky130_fd_sc_hd__or2_1
*I *466:X O *D sky130_fd_sc_hd__a22o_1
*CAP
1 *540:A3 8.83338e-05
2 *469:A 0.000161818
3 *466:X 0.000247717
4 *70:8 0.000497869
5 *469:A *228:12 1.4399e-05
6 *540:A3 *462:A 8.23457e-05
7 *540:A3 *462:B 8.23457e-05
8 *540:A3 *181:8 8.35683e-05
9 *70:8 *469:B 4.40643e-05
10 *70:8 *540:A4 0.000236876
11 *70:8 *181:8 9.50342e-06
12 *70:8 *228:12 0.000291372
13 *592:A *469:A 2.65814e-06
*RES
1 *466:X *70:8 8.805 
2 *70:8 *469:A 5.895 
3 *70:8 *540:A3 5.52 
*END

*D_NET *71 0.00208114
*CONN
*I *540:A4 I *D sky130_fd_sc_hd__a41oi_1
*I *468:B1 I *D sky130_fd_sc_hd__o21ai_1
*I *467:Y O *D sky130_fd_sc_hd__nand2b_1
*CAP
1 *540:A4 0.000302379
2 *468:B1 9.12288e-05
3 *467:Y 0.000142449
4 *71:8 0.000536056
5 *468:B1 *437:A 0.000113797